xflr5 v6.47

 Calculated polar for: NACA 23015 vertical convention closed TE

 1 1 Reynolds number fixed          Mach number fixed         

 xtrf =   0.100 (top)        0.100 (bottom)
 Mach =   0.000     Re =     0.500 e 6     Ncrit =   5.000

  alpha     CL        CD       CDp       Cm    Top Xtr Bot Xtr   Cpmin    Chinge    XCp    
 ------- -------- --------- --------- -------- ------- ------- -------- --------- ---------
 -20.000  -0.9389   0.11145   0.10563  -0.0490  0.1000  0.0199  -7.7319   0.0000   0.1664
 -19.500  -0.9797   0.09639   0.09031  -0.0579  0.1000  0.0200  -8.0385   0.0000   0.1608
 -19.000  -1.0070   0.08453   0.07824  -0.0646  0.1000  0.0202  -8.1752   0.0000   0.1572
 -18.500  -1.0278   0.07436   0.06786  -0.0700  0.1000  0.0204  -8.2281   0.0000   0.1545
 -18.000  -1.0424   0.06571   0.05902  -0.0742  0.1000  0.0206  -8.2112   0.0000   0.1528
 -17.500  -1.0516   0.05836   0.05145  -0.0772  0.1000  0.0210  -8.1396   0.0000   0.1518
 -17.000  -1.0565   0.05205   0.04494  -0.0792  0.1000  0.0213  -8.0269   0.0000   0.1515
 -16.500  -1.0576   0.04664   0.03931  -0.0802  0.1000  0.0218  -7.8820   0.0000   0.1518
 -16.000  -1.0549   0.04201   0.03444  -0.0803  0.1000  0.0223  -7.7096   0.0000   0.1526
 -15.500  -1.0494   0.03802   0.03025  -0.0796  0.1000  0.0227  -7.5132   0.0000   0.1539
 -15.000  -1.0404   0.03468   0.02678  -0.0782  0.1000  0.0231  -7.2850   0.0000   0.1556
 -14.500  -1.0270   0.03194   0.02389  -0.0762  0.1000  0.0236  -7.0369   0.0000   0.1575
 -14.000  -1.0110   0.02959   0.02138  -0.0736  0.1000  0.0242  -6.7855   0.0000   0.1598
 -13.500  -0.9922   0.02758   0.01919  -0.0706  0.1000  0.0250  -6.5240   0.0000   0.1622
 -13.000  -0.9724   0.02579   0.01727  -0.0672  0.1000  0.0257  -6.2559   0.0000   0.1650
 -12.500  -0.9491   0.02433   0.01570  -0.0637  0.1000  0.0265  -5.9701   0.0000   0.1678
 -12.000  -0.9236   0.02303   0.01427  -0.0600  0.1000  0.0274  -5.6830   0.0000   0.1706
 -11.500  -0.8960   0.02187   0.01295  -0.0561  0.1000  0.0283  -5.3953   0.0000   0.1736
 -11.000  -0.8681   0.02079   0.01180  -0.0521  0.1000  0.0293  -5.1097   0.0000   0.1768
 -10.500  -0.8367   0.01991   0.01081  -0.0482  0.1000  0.0306  -4.8243   0.0000   0.1798
 -10.000  -0.8058   0.01908   0.00987  -0.0440  0.1000  0.0319  -4.5482   0.0000   0.1833
  -9.500  -0.7744   0.01841   0.00913  -0.0396  0.1000  0.0333  -4.2718   0.0000   0.1872
  -8.500  -0.6988   0.01717   0.00772  -0.0331  0.1000  0.0370  -3.7017   0.0000   0.1919
  -8.000  -0.6576   0.01662   0.00706  -0.0303  0.1000  0.0392  -3.4306   0.0000   0.1936
  -7.500  -0.6149   0.01611   0.00649  -0.0277  0.1000  0.0419  -3.1594   0.0000   0.1949
  -7.000  -0.5712   0.01562   0.00595  -0.0253  0.1000  0.0448  -2.8943   0.0000   0.1960
  -6.500  -0.5261   0.01519   0.00545  -0.0231  0.1000  0.0485  -2.6389   0.0000   0.1966
  -6.000  -0.4801   0.01480   0.00501  -0.0210  0.1000  0.0528  -2.3948   0.0000   0.1969
  -5.500  -0.4334   0.01444   0.00460  -0.0190  0.1000  0.0583  -2.1563   0.0000   0.1969
  -5.000  -0.3862   0.01409   0.00423  -0.0171  0.1000  0.0652  -1.9351   0.0000   0.1965
  -4.500  -0.3384   0.01377   0.00391  -0.0153  0.1000  0.0749  -1.7232   0.0000   0.1956
  -4.000  -0.2905   0.01346   0.00360  -0.0135  0.1000  0.0896  -1.5249   0.0000   0.1942
  -3.500  -0.2412   0.01324   0.00335  -0.0120  0.1000  0.1000  -1.3368   0.0000   0.1910
  -3.000  -0.1902   0.01316   0.00317  -0.0107  0.1000  0.1000  -1.1555   0.0000   0.1840
  -2.500  -0.1389   0.01310   0.00303  -0.0094  0.1000  0.1000  -0.9880   0.0000   0.1713
  -2.000  -0.0875   0.01306   0.00293  -0.0082  0.1000  0.1000  -0.8301   0.0000   0.1430
  -1.500  -0.0361   0.01305   0.00285  -0.0071  0.1000  0.1000  -0.6836   0.0000   0.0326
  -1.000   0.0155   0.01305   0.00281  -0.0059  0.1000  0.1000  -0.6283   0.0000   0.6587
  -0.500   0.0670   0.01306   0.00279  -0.0048  0.1000  0.1000  -0.6977   0.0000   0.3220
   0.000   0.1185   0.01310   0.00279  -0.0037  0.1000  0.1000  -0.7682   0.0000   0.2780
   0.500   0.1700   0.01315   0.00283  -0.0026  0.1000  0.1000  -0.8399   0.0000   0.2606
   1.000   0.2213   0.01322   0.00289  -0.0015  0.1000  0.1000  -0.9126   0.0000   0.2512
   1.500   0.2725   0.01330   0.00297  -0.0004  0.1000  0.1000  -0.9898   0.0000   0.2452
   2.000   0.3235   0.01340   0.00308   0.0008  0.1000  0.1000  -1.0689   0.0000   0.2410
   2.500   0.3743   0.01351   0.00321   0.0019  0.1000  0.1000  -1.1492   0.0000   0.2377
   3.000   0.4248   0.01364   0.00337   0.0031  0.1000  0.1000  -1.2344   0.0000   0.2351
   3.500   0.4750   0.01379   0.00356   0.0043  0.1000  0.1000  -1.3239   0.0000   0.2329
   4.000   0.5248   0.01396   0.00377   0.0055  0.1000  0.1000  -1.4161   0.0000   0.2309
   4.500   0.5741   0.01414   0.00401   0.0069  0.1000  0.1000  -1.5159   0.0000   0.2290
   5.000   0.6230   0.01435   0.00427   0.0082  0.1000  0.1000  -1.6169   0.0000   0.2273
   5.500   0.6713   0.01457   0.00456   0.0097  0.1000  0.1000  -1.7284   0.0000   0.2256
   6.000   0.7189   0.01481   0.00488   0.0112  0.1000  0.1000  -1.8454   0.0000   0.2238
   6.500   0.7657   0.01507   0.00523   0.0128  0.1000  0.1000  -1.9673   0.0000   0.2221
   7.000   0.8116   0.01536   0.00561   0.0146  0.1000  0.1000  -2.0974   0.0000   0.2203
   7.500   0.8563   0.01567   0.00603   0.0165  0.1000  0.1000  -2.2427   0.0000   0.2183
   8.000   0.8996   0.01601   0.00647   0.0187  0.1000  0.1000  -2.3952   0.0000   0.2162
   8.500   0.9395   0.01635   0.00693   0.0214  0.1000  0.1000  -2.5533   0.0000   0.2135
   9.000   0.9776   0.01673   0.00744   0.0245  0.1000  0.1000  -2.7275   0.0000   0.2106
   9.500   1.0155   0.01721   0.00804   0.0273  0.1000  0.1000  -2.9081   0.0000   0.2079
  10.000   1.0528   0.01775   0.00872   0.0302  0.1000  0.1000  -3.1007   0.0000   0.2054
  10.500   1.0889   0.01835   0.00948   0.0331  0.1000  0.1000  -3.3094   0.0000   0.2029
  11.000   1.1234   0.01904   0.01032   0.0360  0.1000  0.1000  -3.5256   0.0000   0.2005
  11.500   1.1561   0.01982   0.01127   0.0390  0.1000  0.1000  -3.7475   0.0000   0.1979
  12.000   1.1867   0.02073   0.01235   0.0421  0.1000  0.1000  -3.9728   0.0000   0.1953
  12.500   1.2114   0.02200   0.01370   0.0455  0.0926  0.1000  -4.1920   0.0000   0.1924
  13.000   1.2333   0.02350   0.01528   0.0487  0.0853  0.1000  -4.4128   0.0000   0.1894
  13.500   1.2516   0.02532   0.01718   0.0519  0.0788  0.1000  -4.6310   0.0000   0.1865
  14.000   1.2668   0.02750   0.01947   0.0547  0.0727  0.1000  -4.8426   0.0000   0.1837
  14.500   1.2792   0.03011   0.02219   0.0570  0.0672  0.1000  -5.0468   0.0000   0.1812
  15.000   1.2880   0.03324   0.02547   0.0587  0.0624  0.1000  -5.2430   0.0000   0.1790
  15.500   1.2921   0.03711   0.02948   0.0598  0.0581  0.1000  -5.4186   0.0000   0.1771
  16.000   1.2903   0.04192   0.03443   0.0601  0.0543  0.1000  -5.5666   0.0000   0.1756
  16.500   1.2840   0.04765   0.04033   0.0595  0.0509  0.1000  -5.6904   0.0000   0.1745
  17.000   1.2723   0.05449   0.04736   0.0579  0.0482  0.1000  -5.7877   0.0000   0.1740
  17.500   1.2515   0.06296   0.05601   0.0551  0.0459  0.1000  -5.8322   0.0000   0.1741
  18.000   1.2283   0.07224   0.06551   0.0515  0.0439  0.1000  -5.8532   0.0000   0.1748
  18.500   1.1974   0.08310   0.07656   0.0468  0.0421  0.1000  -5.8205   0.0000   0.1763
  19.000   1.1656   0.09456   0.08822   0.0416  0.0405  0.1000  -5.7674   0.0000   0.1784
  19.500   1.1376   0.10580   0.09965   0.0361  0.0388  0.1000  -5.7209   0.0000   0.1810
  20.000   1.1092   0.11747   0.11146   0.0301  0.0372  0.1000  -5.6557   0.0000   0.1843
  20.500   1.0918   0.12750   0.12165   0.0248  0.0354  0.1000  -5.6446   0.0000   0.1875
  21.000   1.0739   0.13778   0.13204   0.0190  0.0337  0.1000  -5.6199   0.0000   0.1912
  21.500   1.0645   0.14666   0.14106   0.0139  0.0319  0.1000  -5.6438   0.0000   0.1947
  22.000   1.0543   0.15580   0.15028   0.0083  0.0303  0.1000  -5.6507   0.0000   0.1986
  22.500   1.0495   0.16396   0.15857   0.0032  0.0287  0.1000  -5.6873   0.0000   0.2022
  23.000   1.0440   0.17229   0.16696  -0.0023  0.0272  0.1000  -5.7104   0.0000   0.2061
  23.500   1.0414   0.18012   0.17492  -0.0075  0.0258  0.1000  -5.7442   0.0000   0.2099
  24.000   1.0395   0.18781   0.18267  -0.0128  0.0245  0.1000  -5.7798   0.0000   0.2137
  24.500   1.0385   0.19536   0.19033  -0.0182  0.0232  0.1000  -5.8163   0.0000   0.2175
  25.000   1.0381   0.20273   0.19778  -0.0235  0.0220  0.1000  -5.8531   0.0000   0.2214


