xflr5 v6.47

 Calculated polar for: NACA 23015 vertical convention closed TE

 1 1 Reynolds number fixed          Mach number fixed         

 xtrf =   0.100 (top)        0.100 (bottom)
 Mach =   0.000     Re =     0.300 e 6     Ncrit =   5.000

  alpha     CL        CD       CDp       Cm    Top Xtr Bot Xtr   Cpmin    Chinge    XCp    
 ------- -------- --------- --------- -------- ------- ------- -------- --------- ---------
 -10.000  -0.7679   0.02274   0.01276  -0.0490  0.1000  0.0372  -4.3319   0.0000   0.1738
  -9.500  -0.7370   0.02174   0.01160  -0.0449  0.1000  0.0391  -4.0773   0.0000   0.1771
  -9.000  -0.7065   0.02090   0.01070  -0.0407  0.1000  0.0408  -3.8197   0.0000   0.1810
  -8.500  -0.6712   0.02009   0.00976  -0.0371  0.1000  0.0433  -3.5621   0.0000   0.1837
  -8.000  -0.6339   0.01933   0.00893  -0.0339  0.1000  0.0458  -3.3088   0.0000   0.1860
  -7.500  -0.5949   0.01861   0.00813  -0.0308  0.1000  0.0489  -3.0596   0.0000   0.1880
  -7.000  -0.5539   0.01799   0.00740  -0.0280  0.1000  0.0526  -2.8110   0.0000   0.1895
  -6.500  -0.5121   0.01739   0.00674  -0.0253  0.1000  0.0570  -2.5720   0.0000   0.1908
  -6.000  -0.4690   0.01683   0.00613  -0.0228  0.1000  0.0623  -2.3414   0.0000   0.1918
  -5.500  -0.4248   0.01634   0.00559  -0.0205  0.1000  0.0692  -2.1158   0.0000   0.1925
  -5.000  -0.3797   0.01588   0.00509  -0.0182  0.1000  0.0783  -1.9045   0.0000   0.1927
  -4.500  -0.3344   0.01542   0.00463  -0.0161  0.1000  0.0925  -1.7022   0.0000   0.1927
  -4.000  -0.2868   0.01512   0.00424  -0.0142  0.1000  0.1000  -1.5094   0.0000   0.1912
  -3.500  -0.2372   0.01497   0.00395  -0.0127  0.1000  0.1000  -1.3236   0.0000   0.1871
  -3.000  -0.1872   0.01487   0.00373  -0.0112  0.1000  0.1000  -1.1457   0.0000   0.1801
  -2.500  -0.1369   0.01479   0.00356  -0.0098  0.1000  0.1000  -0.9808   0.0000   0.1673
  -2.000  -0.0864   0.01475   0.00342  -0.0085  0.1000  0.1000  -0.8259   0.0000   0.1387
  -1.500  -0.0358   0.01472   0.00333  -0.0072  0.1000  0.1000  -0.6818   0.0000   0.0280
  -1.000   0.0149   0.01472   0.00327  -0.0059  0.1000  0.1000  -0.6292   0.0000   0.6717
  -0.500   0.0656   0.01474   0.00324  -0.0046  0.1000  0.1000  -0.6979   0.0000   0.3208
   0.000   0.1162   0.01478   0.00325  -0.0034  0.1000  0.1000  -0.7679   0.0000   0.2758
   0.500   0.1668   0.01484   0.00329  -0.0021  0.1000  0.1000  -0.8390   0.0000   0.2580
   1.000   0.2172   0.01492   0.00336  -0.0009  0.1000  0.1000  -0.9111   0.0000   0.2484
   1.500   0.2675   0.01502   0.00346   0.0004  0.1000  0.1000  -0.9843   0.0000   0.2423
   2.000   0.3175   0.01514   0.00359   0.0017  0.1000  0.1000  -1.0607   0.0000   0.2380
   2.500   0.3674   0.01528   0.00375   0.0030  0.1000  0.1000  -1.1400   0.0000   0.2347
   3.000   0.4168   0.01544   0.00394   0.0043  0.1000  0.1000  -1.2250   0.0000   0.2320
   3.500   0.4660   0.01562   0.00417   0.0057  0.1000  0.1000  -1.3132   0.0000   0.2297
   4.000   0.5147   0.01582   0.00442   0.0071  0.1000  0.1000  -1.4035   0.0000   0.2276
   4.500   0.5629   0.01605   0.00471   0.0086  0.1000  0.1000  -1.5017   0.0000   0.2257
   5.000   0.6105   0.01629   0.00504   0.0101  0.1000  0.1000  -1.6009   0.0000   0.2238
   5.500   0.6574   0.01657   0.00540   0.0117  0.1000  0.1000  -1.7088   0.0000   0.2220
   6.000   0.7036   0.01686   0.00579   0.0135  0.1000  0.1000  -1.8234   0.0000   0.2202
   6.500   0.7487   0.01719   0.00622   0.0153  0.1000  0.1000  -1.9418   0.0000   0.2183
   7.000   0.7929   0.01754   0.00669   0.0173  0.1000  0.1000  -2.0673   0.0000   0.2163
   7.500   0.8356   0.01793   0.00720   0.0195  0.1000  0.1000  -2.2056   0.0000   0.2142
   8.000   0.8756   0.01833   0.00774   0.0222  0.1000  0.1000  -2.3504   0.0000   0.2116
   8.500   0.9131   0.01876   0.00831   0.0252  0.1000  0.1000  -2.4981   0.0000   0.2086
   9.000   0.9500   0.01929   0.00899   0.0282  0.1000  0.1000  -2.6663   0.0000   0.2058
   9.500   0.9865   0.01990   0.00976   0.0311  0.1000  0.1000  -2.8397   0.0000   0.2032
  10.000   1.0217   0.02058   0.01062   0.0340  0.1000  0.1000  -3.0210   0.0000   0.2007
  10.500   1.0555   0.02136   0.01157   0.0369  0.1000  0.1000  -3.2178   0.0000   0.1982
  11.000   1.0875   0.02224   0.01264   0.0399  0.1000  0.1000  -3.4205   0.0000   0.1957
  11.500   1.1174   0.02326   0.01386   0.0429  0.1000  0.1000  -3.6270   0.0000   0.1932
  12.000   1.1452   0.02444   0.01525   0.0458  0.1000  0.1000  -3.8375   0.0000   0.1907
  12.500   1.1703   0.02584   0.01686   0.0486  0.1000  0.1000  -4.0489   0.0000   0.1882
  13.000   1.1925   0.02751   0.01876   0.0514  0.1000  0.1000  -4.2581   0.0000   0.1857
  13.500   1.2086   0.02971   0.02110   0.0540  0.0954  0.1000  -4.4558   0.0000   0.1830
  14.000   1.2220   0.03231   0.02386   0.0561  0.0888  0.1000  -4.6532   0.0000   0.1807
  14.500   1.2306   0.03553   0.02723   0.0577  0.0828  0.1000  -4.8332   0.0000   0.1786
  15.000   1.2344   0.03950   0.03136   0.0586  0.0775  0.1000  -4.9949   0.0000   0.1768
  15.500   1.2319   0.04446   0.03647   0.0587  0.0726  0.1000  -5.1326   0.0000   0.1754
  16.000   1.2279   0.05002   0.04223   0.0579  0.0682  0.1000  -5.2585   0.0000   0.1746
  16.500   1.2167   0.05687   0.04927   0.0562  0.0645  0.1000  -5.3459   0.0000   0.1743
  17.000   1.1987   0.06507   0.05766   0.0534  0.0611  0.1000  -5.3932   0.0000   0.1746
  17.500   1.1796   0.07391   0.06671   0.0499  0.0580  0.1000  -5.4253   0.0000   0.1755
  18.000   1.1529   0.08430   0.07728   0.0453  0.0555  0.1000  -5.4108   0.0000   0.1772
  18.500   1.1294   0.09463   0.08783   0.0405  0.0527  0.1000  -5.3998   0.0000   0.1793
  19.000   1.1029   0.10579   0.09914   0.0350  0.0504  0.1000  -5.3591   0.0000   0.1822
  19.500   1.0829   0.11623   0.10976   0.0296  0.0478  0.1000  -5.3402   0.0000   0.1853
  20.000   1.0638   0.12665   0.12028   0.0240  0.0455  0.1000  -5.3165   0.0000   0.1889
  20.500   1.0497   0.13645   0.13027   0.0186  0.0429  0.1000  -5.3078   0.0000   0.1926
  21.000   1.0393   0.14565   0.13955   0.0132  0.0407  0.1000  -5.3143   0.0000   0.1964
  21.500   1.0293   0.15496   0.14900   0.0076  0.0384  0.1000  -5.3122   0.0000   0.2005
  22.000   1.0234   0.16351   0.15765   0.0022  0.0363  0.1000  -5.3325   0.0000   0.2045
  22.500   1.0177   0.17212   0.16637  -0.0034  0.0342  0.1000  -5.3422   0.0000   0.2088
  23.000   1.0112   0.18100   0.17537  -0.0092  0.0323  0.1000  -5.3281   0.0000   0.2134
  23.500   1.0110   0.18858   0.18301  -0.0145  0.0305  0.1000  -5.3641   0.0000   0.2174
  24.000   0.9963   0.19955   0.19415  -0.0217  0.0286  0.1000  -5.2287   0.0000   0.2238
  24.500   1.0047   0.20518   0.19980  -0.0261  0.0272  0.1000  -5.3424   0.0000   0.2266
  25.000   0.9665   0.22252   0.21733  -0.0366  0.0246  0.1000  -4.8572   0.0000   0.2384


