xflr5 v6.47

 Calculated polar for: NACA 23015 vertical convention closed TE

 1 1 Reynolds number fixed          Mach number fixed         

 xtrf =   0.100 (top)        0.100 (bottom)
 Mach =   0.000     Re =     0.600 e 6     Ncrit =   5.000

  alpha     CL        CD       CDp       Cm    Top Xtr Bot Xtr   Cpmin    Chinge    XCp    
 ------- -------- --------- --------- -------- ------- ------- -------- --------- ---------
 -20.000  -0.9862   0.10264   0.09693  -0.0548  0.1000  0.0188  -8.2108   0.0000   0.1633
 -19.500  -1.0240   0.08870   0.08272  -0.0628  0.1000  0.0190  -8.4563   0.0000   0.1589
 -19.000  -1.0513   0.07732   0.07110  -0.0690  0.1000  0.0192  -8.5720   0.0000   0.1560
 -18.500  -1.0706   0.06784   0.06138  -0.0737  0.1000  0.0194  -8.5990   0.0000   0.1542
 -18.000  -1.0836   0.05984   0.05314  -0.0771  0.1000  0.0197  -8.5598   0.0000   0.1531
 -17.500  -1.0910   0.05309   0.04615  -0.0794  0.1000  0.0199  -8.4666   0.0000   0.1528
 -17.000  -1.0955   0.04719   0.04010  -0.0808  0.1000  0.0202  -8.3347   0.0000   0.1530
 -16.500  -1.0934   0.04241   0.03517  -0.0812  0.1000  0.0206  -8.1519   0.0000   0.1537
 -16.000  -1.0870   0.03842   0.03101  -0.0808  0.1000  0.0210  -7.9383   0.0000   0.1547
 -15.500  -1.0777   0.03499   0.02742  -0.0796  0.1000  0.0215  -7.7067   0.0000   0.1561
 -15.000  -1.0658   0.03205   0.02429  -0.0778  0.1000  0.0220  -7.4610   0.0000   0.1580
 -14.500  -1.0508   0.02957   0.02161  -0.0754  0.1000  0.0225  -7.2048   0.0000   0.1602
 -14.000  -1.0359   0.02731   0.01926  -0.0723  0.1000  0.0230  -6.9484   0.0000   0.1629
 -13.500  -1.0158   0.02555   0.01737  -0.0691  0.1000  0.0236  -6.6679   0.0000   0.1655
 -13.000  -0.9928   0.02406   0.01575  -0.0656  0.1000  0.0244  -6.3783   0.0000   0.1682
 -12.500  -0.9674   0.02277   0.01430  -0.0620  0.1000  0.0252  -6.0840   0.0000   0.1709
 -12.000  -0.9423   0.02153   0.01298  -0.0580  0.1000  0.0260  -5.7910   0.0000   0.1742
 -11.500  -0.9134   0.02052   0.01187  -0.0541  0.1000  0.0269  -5.4871   0.0000   0.1771
 -11.000  -0.8828   0.01961   0.01083  -0.0502  0.1000  0.0280  -5.1918   0.0000   0.1801
 -10.500  -0.8521   0.01874   0.00988  -0.0460  0.1000  0.0290  -4.9049   0.0000   0.1834
 -10.000  -0.8197   0.01808   0.00913  -0.0419  0.1000  0.0304  -4.6159   0.0000   0.1869
  -9.500  -0.7862   0.01749   0.00843  -0.0378  0.1000  0.0317  -4.3322   0.0000   0.1904
  -9.000  -0.7480   0.01687   0.00776  -0.0346  0.1000  0.0333  -4.0374   0.0000   0.1927
  -8.500  -0.7069   0.01635   0.00713  -0.0318  0.1000  0.0352  -3.7436   0.0000   0.1943
  -8.000  -0.6649   0.01582   0.00656  -0.0291  0.1000  0.0373  -3.4646   0.0000   0.1959
  -7.500  -0.6212   0.01535   0.00602  -0.0267  0.1000  0.0397  -3.1898   0.0000   0.1970
  -7.000  -0.5761   0.01494   0.00554  -0.0245  0.1000  0.0427  -2.9180   0.0000   0.1978
  -6.500  -0.5304   0.01453   0.00509  -0.0224  0.1000  0.0461  -2.6581   0.0000   0.1984
  -6.000  -0.4838   0.01417   0.00468  -0.0204  0.1000  0.0502  -2.4106   0.0000   0.1986
  -5.500  -0.4364   0.01384   0.00431  -0.0185  0.1000  0.0552  -2.1690   0.0000   0.1984
  -5.000  -0.3884   0.01353   0.00398  -0.0167  0.1000  0.0616  -1.9446   0.0000   0.1978
  -4.500  -0.3398   0.01326   0.00369  -0.0151  0.1000  0.0702  -1.7298   0.0000   0.1966
  -4.000  -0.2913   0.01297   0.00341  -0.0134  0.1000  0.0828  -1.5294   0.0000   0.1950
  -3.500  -0.2425   0.01271   0.00317  -0.0117  0.1000  0.1000  -1.3410   0.0000   0.1923
  -3.000  -0.1912   0.01263   0.00300  -0.0105  0.1000  0.1000  -1.1587   0.0000   0.1853
  -2.500  -0.1396   0.01258   0.00288  -0.0093  0.1000  0.1000  -0.9901   0.0000   0.1726
  -2.000  -0.0879   0.01254   0.00278  -0.0082  0.1000  0.1000  -0.8314   0.0000   0.1443
  -1.500  -0.0361   0.01253   0.00271  -0.0071  0.1000  0.1000  -0.6841   0.0000   0.0337
  -1.000   0.0157   0.01253   0.00267  -0.0060  0.1000  0.1000  -0.6274   0.0000   0.6543
  -0.500   0.0675   0.01254   0.00265  -0.0049  0.1000  0.1000  -0.6969   0.0000   0.3225
   0.000   0.1193   0.01258   0.00266  -0.0038  0.1000  0.1000  -0.7676   0.0000   0.2788
   0.500   0.1711   0.01262   0.00269  -0.0028  0.1000  0.1000  -0.8394   0.0000   0.2615
   1.000   0.2227   0.01269   0.00275  -0.0017  0.1000  0.1000  -0.9136   0.0000   0.2521
   1.500   0.2742   0.01276   0.00282  -0.0006  0.1000  0.1000  -0.9919   0.0000   0.2462
   2.000   0.3255   0.01286   0.00293   0.0004  0.1000  0.1000  -1.0713   0.0000   0.2420
   2.500   0.3766   0.01296   0.00305   0.0015  0.1000  0.1000  -1.1519   0.0000   0.2388
   3.000   0.4275   0.01309   0.00320   0.0027  0.1000  0.1000  -1.2374   0.0000   0.2362
   3.500   0.4780   0.01323   0.00337   0.0038  0.1000  0.1000  -1.3273   0.0000   0.2340
   4.000   0.5282   0.01338   0.00357   0.0050  0.1000  0.1000  -1.4202   0.0000   0.2320
   4.500   0.5780   0.01356   0.00379   0.0062  0.1000  0.1000  -1.5205   0.0000   0.2302
   5.000   0.6273   0.01375   0.00404   0.0075  0.1000  0.1000  -1.6221   0.0000   0.2285
   5.500   0.6760   0.01395   0.00431   0.0089  0.1000  0.1000  -1.7348   0.0000   0.2268
   6.000   0.7241   0.01418   0.00461   0.0104  0.1000  0.1000  -1.8526   0.0000   0.2251
   6.500   0.7715   0.01442   0.00494   0.0119  0.1000  0.1000  -1.9757   0.0000   0.2234
   7.000   0.8180   0.01469   0.00529   0.0136  0.1000  0.1000  -2.1074   0.0000   0.2217
   7.500   0.8635   0.01498   0.00568   0.0154  0.1000  0.1000  -2.2555   0.0000   0.2198
   8.000   0.9077   0.01530   0.00609   0.0174  0.1000  0.1000  -2.4099   0.0000   0.2178
   8.500   0.9491   0.01562   0.00653   0.0199  0.1000  0.1000  -2.5735   0.0000   0.2153
   9.000   0.9877   0.01596   0.00698   0.0229  0.1000  0.1000  -2.7494   0.0000   0.2124
   9.500   1.0261   0.01638   0.00753   0.0258  0.1000  0.1000  -2.9323   0.0000   0.2097
  10.000   1.0639   0.01688   0.00815   0.0287  0.1000  0.1000  -3.1289   0.0000   0.2072
  10.500   1.1007   0.01743   0.00885   0.0315  0.1000  0.1000  -3.3412   0.0000   0.2047
  11.000   1.1362   0.01805   0.00961   0.0344  0.1000  0.1000  -3.5623   0.0000   0.2023
  11.500   1.1700   0.01876   0.01048   0.0374  0.1000  0.1000  -3.7896   0.0000   0.1997
  12.000   1.1983   0.01976   0.01156   0.0409  0.0941  0.1000  -4.0120   0.0000   0.1968
  12.500   1.2237   0.02095   0.01281   0.0443  0.0865  0.1000  -4.2354   0.0000   0.1937
  13.500   1.2662   0.02400   0.01602   0.0510  0.0732  0.1000  -4.6883   0.0000   0.1878
  14.000   1.2829   0.02599   0.01810   0.0539  0.0674  0.1000  -4.9078   0.0000   0.1849
  14.500   1.2965   0.02837   0.02060   0.0565  0.0622  0.1000  -5.1217   0.0000   0.1823
  15.000   1.3064   0.03128   0.02362   0.0586  0.0576  0.1000  -5.3252   0.0000   0.1799
  15.500   1.3118   0.03484   0.02731   0.0601  0.0535  0.1000  -5.5105   0.0000   0.1778
  16.000   1.3118   0.03928   0.03188   0.0607  0.0499  0.1000  -5.6701   0.0000   0.1760
  16.500   1.3085   0.04448   0.03724   0.0605  0.0467  0.1000  -5.8151   0.0000   0.1747
  17.000   1.2986   0.05086   0.04380   0.0594  0.0442  0.1000  -5.9268   0.0000   0.1739
  17.500   1.2812   0.05863   0.05175   0.0571  0.0419  0.1000  -5.9943   0.0000   0.1737
  18.000   1.2578   0.06769   0.06102   0.0538  0.0402  0.1000  -6.0211   0.0000   0.1741
  18.500   1.2286   0.07805   0.07158   0.0496  0.0386  0.1000  -6.0049   0.0000   0.1751
  20.000   1.1313   0.11324   0.10734   0.0329  0.0344  0.1000  -5.8095   0.0000   0.1824
  20.500   1.1071   0.12429   0.11855   0.0271  0.0330  0.1000  -5.7615   0.0000   0.1858
  21.000   1.0893   0.13449   0.12889   0.0214  0.0314  0.1000  -5.7442   0.0000   0.1893
  21.500   1.0739   0.14435   0.13885   0.0158  0.0300  0.1000  -5.7320   0.0000   0.1930
  22.000   1.0653   0.15314   0.14776   0.0105  0.0284  0.1000  -5.7549   0.0000   0.1966
  22.500   1.0559   0.16212   0.15682   0.0049  0.0270  0.1000  -5.7621   0.0000   0.2006
  23.000   1.0520   0.17009   0.16491  -0.0003  0.0256  0.1000  -5.8010   0.0000   0.2042
  23.500   1.0470   0.17833   0.17321  -0.0058  0.0243  0.1000  -5.8215   0.0000   0.2081
  24.000   1.0460   0.18580   0.18080  -0.0109  0.0231  0.1000  -5.8678   0.0000   0.2117
  24.500   1.0441   0.19346   0.18853  -0.0163  0.0219  0.1000  -5.9045   0.0000   0.2156
  25.000   1.0438   0.20075   0.19592  -0.0216  0.0207  0.1000  -5.9462   0.0000   0.2193


