xflr5 v6.47

 Calculated polar for: NACA 23015 vertical convention closed TE

 1 1 Reynolds number fixed          Mach number fixed         

 xtrf =   0.100 (top)        0.100 (bottom)
 Mach =   0.000     Re =     1.200 e 6     Ncrit =   5.000

  alpha     CL        CD       CDp       Cm    Top Xtr Bot Xtr   Cpmin    Chinge    XCp    
 ------- -------- --------- --------- -------- ------- ------- -------- --------- ---------
 -10.000  -0.8618   0.01511   0.00699  -0.0353  0.1000  0.0255  -4.8217   0.0000   0.1972
  -9.500  -0.8206   0.01461   0.00645  -0.0325  0.1000  0.0267  -4.5003   0.0000   0.1991
  -9.000  -0.7770   0.01420   0.00597  -0.0301  0.1000  0.0281  -4.1790   0.0000   0.2004
  -8.500  -0.7327   0.01377   0.00550  -0.0277  0.1000  0.0296  -3.8647   0.0000   0.2017
  -8.000  -0.6867   0.01342   0.00508  -0.0256  0.1000  0.0313  -3.5663   0.0000   0.2025
  -7.500  -0.6402   0.01306   0.00469  -0.0236  0.1000  0.0334  -3.2757   0.0000   0.2033
  -7.000  -0.5925   0.01275   0.00433  -0.0218  0.1000  0.0357  -2.9909   0.0000   0.2037
  -6.500  -0.5442   0.01246   0.00401  -0.0201  0.1000  0.0386  -2.7165   0.0000   0.2038
  -6.000  -0.4953   0.01219   0.00371  -0.0184  0.1000  0.0419  -2.4586   0.0000   0.2037
  -5.500  -0.4459   0.01194   0.00345  -0.0169  0.1000  0.0460  -2.2077   0.0000   0.2031
  -5.000  -0.3960   0.01172   0.00320  -0.0154  0.1000  0.0506  -1.9743   0.0000   0.2021
  -4.500  -0.3457   0.01152   0.00299  -0.0140  0.1000  0.0566  -1.7524   0.0000   0.2005
  -4.000  -0.2950   0.01134   0.00280  -0.0127  0.1000  0.0642  -1.5453   0.0000   0.1980
  -3.500  -0.2445   0.01114   0.00263  -0.0113  0.1000  0.0757  -1.3509   0.0000   0.1945
  -3.000  -0.1941   0.01095   0.00248  -0.0099  0.1000  0.0939  -1.1683   0.0000   0.1891
  -2.500  -0.1420   0.01086   0.00237  -0.0088  0.1000  0.1000  -0.9973   0.0000   0.1772
  -2.000  -0.0893   0.01084   0.00230  -0.0079  0.1000  0.1000  -0.8353   0.0000   0.1490
  -1.500  -0.0364   0.01083   0.00225  -0.0070  0.1000  0.1000  -0.6854   0.0000   0.0383
  -1.000   0.0164   0.01084   0.00223  -0.0061  0.1000  0.1000  -0.6209   0.0000   0.6412
  -0.500   0.0693   0.01085   0.00222  -0.0052  0.1000  0.1000  -0.6905   0.0000   0.3243
   0.000   0.1221   0.01088   0.00223  -0.0043  0.1000  0.1000  -0.7639   0.0000   0.2816
   0.500   0.1749   0.01092   0.00226  -0.0034  0.1000  0.1000  -0.8404   0.0000   0.2647
   1.000   0.2276   0.01097   0.00230  -0.0025  0.1000  0.1000  -0.9182   0.0000   0.2555
   1.500   0.2801   0.01103   0.00237  -0.0016  0.1000  0.1000  -0.9973   0.0000   0.2497
   2.000   0.3325   0.01111   0.00245  -0.0007  0.1000  0.1000  -1.0777   0.0000   0.2455
   2.500   0.3848   0.01119   0.00255   0.0002  0.1000  0.1000  -1.1591   0.0000   0.2424
   3.000   0.4368   0.01129   0.00267   0.0011  0.1000  0.1000  -1.2467   0.0000   0.2399
   3.500   0.4886   0.01140   0.00280   0.0021  0.1000  0.1000  -1.3380   0.0000   0.2378
   4.000   0.5401   0.01152   0.00296   0.0031  0.1000  0.1000  -1.4335   0.0000   0.2359
   4.500   0.5912   0.01166   0.00313   0.0041  0.1000  0.1000  -1.5356   0.0000   0.2342
   5.000   0.6420   0.01180   0.00332   0.0051  0.1000  0.1000  -1.6394   0.0000   0.2326
   5.500   0.6924   0.01197   0.00354   0.0063  0.1000  0.1000  -1.7563   0.0000   0.2310
   6.000   0.7422   0.01214   0.00377   0.0074  0.1000  0.1000  -1.8769   0.0000   0.2295
   6.500   0.7915   0.01233   0.00402   0.0087  0.1000  0.1000  -2.0045   0.0000   0.2280
   7.000   0.8402   0.01254   0.00429   0.0100  0.1000  0.1000  -2.1435   0.0000   0.2264
   7.500   0.8881   0.01276   0.00458   0.0115  0.1000  0.1000  -2.2992   0.0000   0.2248
   8.000   0.9351   0.01300   0.00490   0.0130  0.1000  0.1000  -2.4594   0.0000   0.2232
   8.500   0.9810   0.01325   0.00524   0.0148  0.1000  0.1000  -2.6402   0.0000   0.2214
   9.000   1.0255   0.01353   0.00561   0.0167  0.1000  0.1000  -2.8295   0.0000   0.2194
   9.500   1.0659   0.01379   0.00597   0.0195  0.1000  0.1000  -3.0219   0.0000   0.2167
  10.000   1.1051   0.01410   0.00638   0.0224  0.1000  0.1000  -3.2339   0.0000   0.2140
  10.500   1.1420   0.01460   0.00693   0.0255  0.0961  0.1000  -3.4538   0.0000   0.2111
  11.000   1.1756   0.01526   0.00761   0.0290  0.0879  0.1000  -3.6764   0.0000   0.2080
  11.500   1.2071   0.01602   0.00839   0.0326  0.0800  0.1000  -3.9042   0.0000   0.2048
  12.500   1.2646   0.01780   0.01024   0.0400  0.0664  0.1000  -4.3780   0.0000   0.1985
  13.000   1.2901   0.01888   0.01137   0.0437  0.0605  0.1000  -4.6231   0.0000   0.1953
  13.500   1.3129   0.02014   0.01268   0.0473  0.0550  0.1000  -4.8677   0.0000   0.1921
  14.000   1.3329   0.02164   0.01424   0.0509  0.0501  0.1000  -5.1095   0.0000   0.1890
  14.500   1.3504   0.02340   0.01607   0.0542  0.0458  0.1000  -5.3506   0.0000   0.1860
  15.000   1.3654   0.02549   0.01824   0.0571  0.0421  0.1000  -5.5841   0.0000   0.1832
  15.500   1.3774   0.02799   0.02084   0.0596  0.0390  0.1000  -5.8071   0.0000   0.1806
  16.000   1.3854   0.03105   0.02401   0.0616  0.0362  0.1000  -6.0209   0.0000   0.1783
  16.500   1.3891   0.03480   0.02786   0.0629  0.0338  0.1000  -6.2161   0.0000   0.1762
  17.000   1.3908   0.03911   0.03232   0.0634  0.0318  0.1000  -6.3998   0.0000   0.1746
  17.500   1.3844   0.04463   0.03797   0.0631  0.0300  0.1000  -6.5423   0.0000   0.1733
  18.000   1.3743   0.05103   0.04454   0.0618  0.0285  0.1000  -6.6607   0.0000   0.1725
  18.500   1.3538   0.05914   0.05281   0.0594  0.0273  0.1000  -6.7181   0.0000   0.1722
  19.000   1.3289   0.06833   0.06220   0.0560  0.0264  0.1000  -6.7450   0.0000   0.1724
  19.500   1.2947   0.07927   0.07335   0.0514  0.0257  0.1000  -6.7078   0.0000   0.1734
  20.000   1.2539   0.09170   0.08599   0.0458  0.0250  0.1000  -6.6142   0.0000   0.1752
  20.500   1.2101   0.10510   0.09960   0.0392  0.0245  0.1000  -6.4818   0.0000   0.1778
  21.000   1.1727   0.11796   0.11265   0.0326  0.0239  0.1000  -6.3681   0.0000   0.1811
  21.500   1.1452   0.12948   0.12433   0.0263  0.0230  0.1000  -6.2996   0.0000   0.1846
  22.000   1.1205   0.14077   0.13574   0.0199  0.0221  0.1000  -6.2323   0.0000   0.1885
  22.500   1.1035   0.15081   0.14590   0.0139  0.0212  0.1000  -6.2052   0.0000   0.1924
  23.000   1.0912   0.16016   0.15537   0.0081  0.0202  0.1000  -6.1984   0.0000   0.1963
  23.500   1.0786   0.16960   0.16490   0.0020  0.0193  0.1000  -6.1754   0.0000   0.2005
  24.000   1.0732   0.17774   0.17314  -0.0035  0.0184  0.1000  -6.2055   0.0000   0.2042
  24.500   1.0681   0.18586   0.18135  -0.0090  0.0175  0.1000  -6.2295   0.0000   0.2081
  25.000   1.0632   0.19400   0.18956  -0.0147  0.0167  0.1000  -6.2434   0.0000   0.2122


