xflr5 v6.47

 Calculated polar for: NACA 23015 vertical convention closed TE

 1 1 Reynolds number fixed          Mach number fixed         

 xtrf =   0.100 (top)        0.100 (bottom)
 Mach =   0.000     Re =     0.200 e 6     Ncrit =   5.000

  alpha     CL        CD       CDp       Cm    Top Xtr Bot Xtr   Cpmin    Chinge    XCp    
 ------- -------- --------- --------- -------- ------- ------- -------- --------- ---------
 -17.000  -0.5268   0.16301   0.15611  -0.0195  0.1000  0.0278  -2.3978   0.0000   0.1871
 -16.000  -0.7402   0.09069   0.08369  -0.0577  0.1000  0.0304  -5.1229   0.0000   0.1482
 -15.500  -0.8456   0.06695   0.05933  -0.0726  0.1000  0.0303  -5.8314   0.0000   0.1425
 -15.000  -0.8865   0.05658   0.04849  -0.0766  0.1000  0.0307  -5.9937   0.0000   0.1435
 -14.500  -0.9149   0.04894   0.04031  -0.0771  0.1000  0.0313  -6.0593   0.0000   0.1469
 -14.000  -0.9180   0.04441   0.03548  -0.0757  0.1000  0.0319  -5.9463   0.0000   0.1498
 -13.500  -0.9095   0.04126   0.03214  -0.0735  0.1000  0.0325  -5.7597   0.0000   0.1523
 -13.000  -0.9000   0.03832   0.02894  -0.0706  0.1000  0.0335  -5.5794   0.0000   0.1555
 -12.500  -0.8887   0.03532   0.02551  -0.0669  0.1000  0.0348  -5.4148   0.0000   0.1594
 -12.000  -0.8667   0.03327   0.02331  -0.0637  0.1000  0.0359  -5.1711   0.0000   0.1619
 -11.500  -0.8420   0.03140   0.02125  -0.0603  0.1000  0.0371  -4.9237   0.0000   0.1643
 -11.000  -0.8144   0.02943   0.01894  -0.0569  0.1000  0.0389  -4.6880   0.0000   0.1667
 -10.500  -0.7843   0.02802   0.01748  -0.0536  0.1000  0.0404  -4.4250   0.0000   0.1688
 -10.000  -0.7521   0.02655   0.01578  -0.0502  0.1000  0.0425  -4.1813   0.0000   0.1708
  -9.500  -0.7202   0.02530   0.01445  -0.0467  0.1000  0.0444  -3.9299   0.0000   0.1732
  -9.000  -0.6866   0.02417   0.01314  -0.0431  0.1000  0.0470  -3.6838   0.0000   0.1757
  -8.500  -0.6517   0.02308   0.01199  -0.0398  0.1000  0.0495  -3.4339   0.0000   0.1779
  -8.000  -0.6146   0.02208   0.01085  -0.0366  0.1000  0.0529  -3.1989   0.0000   0.1797
  -7.500  -0.5772   0.02117   0.00987  -0.0334  0.1000  0.0564  -2.9615   0.0000   0.1816
  -7.000  -0.5390   0.02031   0.00894  -0.0303  0.1000  0.0606  -2.7282   0.0000   0.1836
  -6.500  -0.4997   0.01952   0.00807  -0.0273  0.1000  0.0658  -2.5065   0.0000   0.1854
  -6.000  -0.4593   0.01880   0.00729  -0.0244  0.1000  0.0723  -2.2900   0.0000   0.1872
  -5.500  -0.4179   0.01814   0.00658  -0.0217  0.1000  0.0809  -2.0778   0.0000   0.1887
  -5.000  -0.3754   0.01754   0.00593  -0.0191  0.1000  0.0933  -1.8773   0.0000   0.1898
  -4.500  -0.3307   0.01706   0.00533  -0.0167  0.1000  0.1000  -1.6848   0.0000   0.1901
  -4.000  -0.2828   0.01681   0.00490  -0.0149  0.1000  0.1000  -1.4938   0.0000   0.1880
  -3.500  -0.2340   0.01664   0.00457  -0.0132  0.1000  0.1000  -1.3116   0.0000   0.1839
  -3.000  -0.1847   0.01652   0.00430  -0.0116  0.1000  0.1000  -1.1370   0.0000   0.1769
  -2.500  -0.1352   0.01643   0.00410  -0.0101  0.1000  0.1000  -0.9742   0.0000   0.1639
  -2.000  -0.0854   0.01637   0.00394  -0.0087  0.1000  0.1000  -0.8217   0.0000   0.1351
  -1.500  -0.0355   0.01634   0.00382  -0.0073  0.1000  0.1000  -0.6798   0.0000   0.0240
  -1.000   0.0145   0.01634   0.00375  -0.0059  0.1000  0.1000  -0.6323   0.0000   0.6832
  -0.500   0.0644   0.01636   0.00371  -0.0045  0.1000  0.1000  -0.6974   0.0000   0.3200
   0.000   0.1144   0.01640   0.00372  -0.0031  0.1000  0.1000  -0.7654   0.0000   0.2742
   0.500   0.1643   0.01647   0.00376  -0.0018  0.1000  0.1000  -0.8362   0.0000   0.2561
   1.000   0.2140   0.01657   0.00384  -0.0004  0.1000  0.1000  -0.9077   0.0000   0.2463
   1.500   0.2635   0.01668   0.00396   0.0009  0.1000  0.1000  -0.9802   0.0000   0.2401
   2.000   0.3129   0.01682   0.00411   0.0023  0.1000  0.1000  -1.0537   0.0000   0.2357
   2.500   0.3619   0.01699   0.00430   0.0037  0.1000  0.1000  -1.1322   0.0000   0.2323
   3.000   0.4106   0.01717   0.00453   0.0052  0.1000  0.1000  -1.2166   0.0000   0.2296
   3.500   0.4589   0.01739   0.00480   0.0067  0.1000  0.1000  -1.3037   0.0000   0.2272
   4.000   0.5068   0.01762   0.00510   0.0082  0.1000  0.1000  -1.3926   0.0000   0.2251
   4.500   0.5541   0.01789   0.00544   0.0098  0.1000  0.1000  -1.4894   0.0000   0.2231
   5.000   0.6007   0.01818   0.00583   0.0115  0.1000  0.1000  -1.5872   0.0000   0.2212
   5.500   0.6466   0.01850   0.00625   0.0132  0.1000  0.1000  -1.6927   0.0000   0.2193
   6.000   0.6917   0.01886   0.00672   0.0151  0.1000  0.1000  -1.8049   0.0000   0.2174
   6.500   0.7357   0.01924   0.00723   0.0171  0.1000  0.1000  -1.9208   0.0000   0.2155
   7.000   0.7786   0.01967   0.00779   0.0192  0.1000  0.1000  -2.0427   0.0000   0.2134
   7.500   0.8200   0.02013   0.00840   0.0215  0.1000  0.1000  -2.1763   0.0000   0.2112
   8.000   0.8585   0.02061   0.00905   0.0243  0.1000  0.1000  -2.3162   0.0000   0.2085
   8.500   0.8946   0.02114   0.00974   0.0275  0.1000  0.1000  -2.4573   0.0000   0.2054
   9.000   0.9303   0.02178   0.01056   0.0305  0.1000  0.1000  -2.6194   0.0000   0.2026
   9.500   0.9651   0.02251   0.01149   0.0334  0.1000  0.1000  -2.7863   0.0000   0.2000
  10.000   0.9985   0.02334   0.01252   0.0364  0.1000  0.1000  -2.9599   0.0000   0.1975
  10.500   1.0303   0.02428   0.01366   0.0393  0.1000  0.1000  -3.1448   0.0000   0.1949
  11.000   1.0601   0.02536   0.01496   0.0423  0.1000  0.1000  -3.3362   0.0000   0.1924
  11.500   1.0877   0.02660   0.01643   0.0451  0.1000  0.1000  -3.5321   0.0000   0.1899
  12.000   1.1132   0.02805   0.01812   0.0479  0.1000  0.1000  -3.7296   0.0000   0.1875
  12.500   1.1360   0.02975   0.02008   0.0504  0.1000  0.1000  -3.9259   0.0000   0.1852
  13.000   1.1558   0.03178   0.02236   0.0528  0.1000  0.1000  -4.1198   0.0000   0.1829
  13.500   1.1725   0.03420   0.02504   0.0548  0.1000  0.1000  -4.3100   0.0000   0.1808
  14.000   1.1858   0.03708   0.02818   0.0565  0.1000  0.1000  -4.4914   0.0000   0.1788
  14.500   1.1927   0.04071   0.03201   0.0576  0.0964  0.1000  -4.6557   0.0000   0.1771
  15.000   1.1940   0.04519   0.03670   0.0578  0.0906  0.1000  -4.7972   0.0000   0.1757
  15.500   1.1889   0.05075   0.04243   0.0571  0.0855  0.1000  -4.9113   0.0000   0.1749
  16.000   1.1801   0.05733   0.04922   0.0553  0.0807  0.1000  -5.0052   0.0000   0.1748
  16.500   1.1669   0.06495   0.05706   0.0526  0.0763  0.1000  -5.0706   0.0000   0.1752
  17.500   1.1249   0.08382   0.07635   0.0443  0.0689  0.1000  -5.0967   0.0000   0.1783
  18.000   1.1006   0.09437   0.08706   0.0392  0.0658  0.1000  -5.0758   0.0000   0.1808
  18.500   1.0748   0.10568   0.09859   0.0335  0.0623  0.1000  -5.0300   0.0000   0.1840
  19.000   1.0533   0.11653   0.10959   0.0279  0.0592  0.1000  -4.9982   0.0000   0.1875
  19.500   1.0334   0.12742   0.12063   0.0219  0.0559  0.1000  -4.9602   0.0000   0.1916
  20.000   1.0130   0.13869   0.13208   0.0156  0.0528  0.1000  -4.8973   0.0000   0.1963
  20.500   1.0077   0.14716   0.14059   0.0105  0.0499  0.1000  -4.9305   0.0000   0.2001
  21.000   0.9826   0.15992   0.15356   0.0029  0.0467  0.1000  -4.7878   0.0000   0.2066
  21.500   0.9487   0.17507   0.16887  -0.0061  0.0433  0.1000  -4.5281   0.0000   0.2153
  22.000   0.9544   0.18174   0.17558  -0.0107  0.0409  0.1000  -4.6031   0.0000   0.2188


