xflr5 v6.47

 Calculated polar for: NACA 23015 vertical convention closed TE

 1 1 Reynolds number fixed          Mach number fixed         

 xtrf =   0.100 (top)        0.100 (bottom)
 Mach =   0.000     Re =     0.700 e 6     Ncrit =   5.000

  alpha     CL        CD       CDp       Cm    Top Xtr Bot Xtr   Cpmin    Chinge    XCp    
 ------- -------- --------- --------- -------- ------- ------- -------- --------- ---------
 -10.000  -0.8316   0.01730   0.00855  -0.0401  0.1000  0.0291  -4.6739   0.0000   0.1899
  -9.500  -0.7952   0.01675   0.00792  -0.0365  0.1000  0.0305  -4.3752   0.0000   0.1927
  -9.000  -0.7554   0.01619   0.00727  -0.0335  0.1000  0.0320  -4.0751   0.0000   0.1947
  -8.500  -0.7137   0.01568   0.00670  -0.0307  0.1000  0.0338  -3.7750   0.0000   0.1963
  -8.000  -0.6705   0.01521   0.00616  -0.0282  0.1000  0.0358  -3.4917   0.0000   0.1976
  -7.500  -0.6259   0.01478   0.00567  -0.0259  0.1000  0.0382  -3.2116   0.0000   0.1986
  -7.000  -0.5804   0.01437   0.00522  -0.0238  0.1000  0.0410  -2.9371   0.0000   0.1993
  -6.500  -0.5339   0.01401   0.00481  -0.0218  0.1000  0.0441  -2.6735   0.0000   0.1997
  -6.000  -0.4865   0.01369   0.00443  -0.0199  0.1000  0.0481  -2.4226   0.0000   0.1998
  -5.500  -0.4385   0.01338   0.00409  -0.0181  0.1000  0.0527  -2.1785   0.0000   0.1995
  -5.000  -0.3901   0.01310   0.00378  -0.0164  0.1000  0.0587  -1.9519   0.0000   0.1988
  -4.500  -0.3412   0.01283   0.00351  -0.0148  0.1000  0.0666  -1.7355   0.0000   0.1976
  -4.000  -0.2920   0.01259   0.00327  -0.0132  0.1000  0.0776  -1.5330   0.0000   0.1956
  -3.500  -0.2431   0.01232   0.00303  -0.0116  0.1000  0.0960  -1.3436   0.0000   0.1929
  -3.000  -0.1920   0.01221   0.00287  -0.0103  0.1000  0.1000  -1.1613   0.0000   0.1864
  -2.500  -0.1402   0.01216   0.00275  -0.0092  0.1000  0.1000  -0.9918   0.0000   0.1736
  -2.000  -0.0882   0.01213   0.00266  -0.0081  0.1000  0.1000  -0.8323   0.0000   0.1453
  -1.500  -0.0362   0.01211   0.00260  -0.0070  0.1000  0.1000  -0.6844   0.0000   0.0347
  -1.000   0.0159   0.01211   0.00256  -0.0060  0.1000  0.1000  -0.6264   0.0000   0.6508
  -0.500   0.0680   0.01213   0.00254  -0.0050  0.1000  0.1000  -0.6960   0.0000   0.3229
   0.000   0.1200   0.01216   0.00255  -0.0039  0.1000  0.1000  -0.7667   0.0000   0.2795
   0.500   0.1720   0.01221   0.00258  -0.0029  0.1000  0.1000  -0.8384   0.0000   0.2623
   1.000   0.2239   0.01227   0.00264  -0.0019  0.1000  0.1000  -0.9150   0.0000   0.2529
   1.500   0.2756   0.01234   0.00271  -0.0009  0.1000  0.1000  -0.9935   0.0000   0.2470
   2.000   0.3272   0.01243   0.00281   0.0002  0.1000  0.1000  -1.0732   0.0000   0.2428
   2.500   0.3786   0.01253   0.00293   0.0012  0.1000  0.1000  -1.1539   0.0000   0.2396
   3.000   0.4297   0.01265   0.00307   0.0023  0.1000  0.1000  -1.2397   0.0000   0.2370
   3.500   0.4805   0.01278   0.00323   0.0034  0.1000  0.1000  -1.3299   0.0000   0.2348
   4.000   0.5310   0.01293   0.00342   0.0046  0.1000  0.1000  -1.4234   0.0000   0.2329
   4.500   0.5811   0.01309   0.00363   0.0057  0.1000  0.1000  -1.5242   0.0000   0.2311
   5.000   0.6308   0.01327   0.00386   0.0070  0.1000  0.1000  -1.6262   0.0000   0.2294
   5.500   0.6799   0.01347   0.00412   0.0083  0.1000  0.1000  -1.7400   0.0000   0.2278
   6.000   0.7284   0.01368   0.00440   0.0097  0.1000  0.1000  -1.8584   0.0000   0.2262
   6.500   0.7762   0.01391   0.00471   0.0112  0.1000  0.1000  -1.9825   0.0000   0.2245
   7.000   0.8233   0.01416   0.00504   0.0128  0.1000  0.1000  -2.1157   0.0000   0.2228
   7.500   0.8693   0.01444   0.00540   0.0145  0.1000  0.1000  -2.2659   0.0000   0.2210
   8.000   0.9142   0.01473   0.00580   0.0164  0.1000  0.1000  -2.4217   0.0000   0.2191
   8.500   0.9570   0.01504   0.00621   0.0187  0.1000  0.1000  -2.5901   0.0000   0.2169
   9.000   0.9964   0.01536   0.00663   0.0216  0.1000  0.1000  -2.7679   0.0000   0.2140
   9.500   1.0349   0.01573   0.00712   0.0245  0.1000  0.1000  -2.9524   0.0000   0.2113
  10.000   1.0733   0.01619   0.00770   0.0273  0.1000  0.1000  -3.1530   0.0000   0.2087
  10.500   1.1107   0.01671   0.00835   0.0302  0.1000  0.1000  -3.3684   0.0000   0.2062
  11.000   1.1469   0.01728   0.00907   0.0331  0.1000  0.1000  -3.5926   0.0000   0.2038
  11.500   1.1800   0.01801   0.00990   0.0362  0.0968  0.1000  -3.8205   0.0000   0.2011
  12.000   1.2086   0.01897   0.01092   0.0397  0.0890  0.1000  -4.0462   0.0000   0.1980
  12.500   1.2345   0.02011   0.01211   0.0432  0.0816  0.1000  -4.2731   0.0000   0.1949
  13.000   1.2580   0.02141   0.01348   0.0467  0.0750  0.1000  -4.5038   0.0000   0.1919
  13.500   1.2784   0.02297   0.01511   0.0501  0.0688  0.1000  -4.7354   0.0000   0.1889
  14.000   1.2959   0.02482   0.01705   0.0532  0.0633  0.1000  -4.9597   0.0000   0.1859
  14.500   1.3102   0.02706   0.01939   0.0561  0.0583  0.1000  -5.1802   0.0000   0.1832
  15.000   1.3207   0.02979   0.02222   0.0584  0.0538  0.1000  -5.3890   0.0000   0.1806
  15.500   1.3270   0.03315   0.02569   0.0602  0.0498  0.1000  -5.5804   0.0000   0.1783
  16.000   1.3301   0.03713   0.02981   0.0611  0.0463  0.1000  -5.7568   0.0000   0.1764
  16.500   1.3286   0.04195   0.03478   0.0613  0.0434  0.1000  -5.9162   0.0000   0.1750
  17.000   1.3193   0.04805   0.04104   0.0605  0.0410  0.1000  -6.0353   0.0000   0.1739
  17.500   1.3065   0.05505   0.04822   0.0588  0.0389  0.1000  -6.1308   0.0000   0.1734
  18.000   1.2825   0.06396   0.05732   0.0558  0.0372  0.1000  -6.1601   0.0000   0.1735
  18.500   1.2567   0.07363   0.06721   0.0520  0.0358  0.1000  -6.1682   0.0000   0.1742
  19.000   1.2218   0.08509   0.07888   0.0470  0.0345  0.1000  -6.1124   0.0000   0.1757
  19.500   1.1831   0.09761   0.09160   0.0411  0.0335  0.1000  -6.0178   0.0000   0.1781
  20.000   1.1529   0.10923   0.10340   0.0354  0.0323  0.1000  -5.9550   0.0000   0.1808
  20.500   1.1241   0.12094   0.11528   0.0293  0.0310  0.1000  -5.8859   0.0000   0.1841
  21.000   1.1014   0.13187   0.12634   0.0234  0.0297  0.1000  -5.8421   0.0000   0.1877
  21.500   1.0860   0.14169   0.13629   0.0178  0.0283  0.1000  -5.8338   0.0000   0.1913
  22.000   1.0718   0.15141   0.14611   0.0120  0.0269  0.1000  -5.8207   0.0000   0.1952
  22.500   1.0649   0.15989   0.15471   0.0067  0.0256  0.1000  -5.8503   0.0000   0.1988
  23.000   1.0564   0.16869   0.16359   0.0011  0.0243  0.1000  -5.8568   0.0000   0.2028
  23.500   1.0539   0.17640   0.17141  -0.0040  0.0231  0.1000  -5.9010   0.0000   0.2064
  24.000   1.0499   0.18443   0.17952  -0.0095  0.0219  0.1000  -5.9268   0.0000   0.2103
  24.500   1.0487   0.19191   0.18709  -0.0148  0.0208  0.1000  -5.9726   0.0000   0.2140
  25.000   1.0475   0.19938   0.19464  -0.0201  0.0197  0.1000  -6.0102   0.0000   0.2178


