xflr5 v6.47

 Calculated polar for: NACA 23015 vertical convention closed TE

 1 1 Reynolds number fixed          Mach number fixed         

 xtrf =   0.100 (top)        0.100 (bottom)
 Mach =   0.000     Re =     0.800 e 6     Ncrit =   5.000

  alpha     CL        CD       CDp       Cm    Top Xtr Bot Xtr   Cpmin    Chinge    XCp    
 ------- -------- --------- --------- -------- ------- ------- -------- --------- ---------
 -20.000  -1.0809   0.08616   0.08036  -0.0655  0.1000  0.0173  -9.1145   0.0000   0.1589
 -19.500  -1.1076   0.07515   0.06911  -0.0713  0.1000  0.0175  -9.2134   0.0000   0.1565
 -19.000  -1.1304   0.06540   0.05916  -0.0760  0.1000  0.0176  -9.2521   0.0000   0.1550
 -18.500  -1.1454   0.05733   0.05091  -0.0794  0.1000  0.0179  -9.2105   0.0000   0.1543
 -18.000  -1.1534   0.05067   0.04407  -0.0816  0.1000  0.0181  -9.1035   0.0000   0.1542
 -17.500  -1.1554   0.04514   0.03838  -0.0827  0.1000  0.0184  -8.9465   0.0000   0.1546
 -17.000  -1.1528   0.04052   0.03359  -0.0828  0.1000  0.0187  -8.7520   0.0000   0.1554
 -16.500  -1.1465   0.03662   0.02952  -0.0822  0.1000  0.0191  -8.5303   0.0000   0.1567
 -16.000  -1.1365   0.03334   0.02608  -0.0809  0.1000  0.0195  -8.2837   0.0000   0.1583
 -15.500  -1.1227   0.03062   0.02318  -0.0789  0.1000  0.0199  -8.0149   0.0000   0.1601
 -15.000  -1.1103   0.02805   0.02050  -0.0763  0.1000  0.0204  -7.7496   0.0000   0.1626
 -14.500  -1.0926   0.02605   0.01838  -0.0733  0.1000  0.0209  -7.4607   0.0000   0.1651
 -14.000  -1.0719   0.02438   0.01659  -0.0700  0.1000  0.0214  -7.1673   0.0000   0.1677
 -13.500  -1.0489   0.02294   0.01502  -0.0665  0.1000  0.0220  -6.8678   0.0000   0.1704
 -13.000  -1.0240   0.02168   0.01363  -0.0627  0.1000  0.0226  -6.5634   0.0000   0.1733
 -12.500  -0.9983   0.02052   0.01238  -0.0587  0.1000  0.0233  -6.2561   0.0000   0.1764
 -12.000  -0.9687   0.01959   0.01136  -0.0549  0.1000  0.0242  -5.9363   0.0000   0.1792
 -11.500  -0.9373   0.01875   0.01040  -0.0511  0.1000  0.0251  -5.6179   0.0000   0.1820
 -11.000  -0.9063   0.01792   0.00950  -0.0470  0.1000  0.0259  -5.3126   0.0000   0.1852
 -10.500  -0.8736   0.01725   0.00875  -0.0429  0.1000  0.0270  -5.0120   0.0000   0.1885
 -10.000  -0.8400   0.01672   0.00812  -0.0387  0.1000  0.0281  -4.7158   0.0000   0.1920
  -9.500  -0.8024   0.01615   0.00750  -0.0354  0.1000  0.0294  -4.4112   0.0000   0.1945
  -9.000  -0.7613   0.01565   0.00691  -0.0325  0.1000  0.0310  -4.1033   0.0000   0.1962
  -8.500  -0.7190   0.01515   0.00635  -0.0299  0.1000  0.0326  -3.8005   0.0000   0.1978
  -8.000  -0.6748   0.01473   0.00586  -0.0275  0.1000  0.0347  -3.5119   0.0000   0.1989
  -7.500  -0.6299   0.01430   0.00539  -0.0253  0.1000  0.0368  -3.2297   0.0000   0.1999
  -7.000  -0.5836   0.01394   0.00497  -0.0233  0.1000  0.0395  -2.9521   0.0000   0.2005
  -6.500  -0.5365   0.01360   0.00459  -0.0213  0.1000  0.0427  -2.6850   0.0000   0.2008
  -6.000  -0.4889   0.01328   0.00423  -0.0195  0.1000  0.0465  -2.4324   0.0000   0.2008
  -5.500  -0.4405   0.01299   0.00391  -0.0178  0.1000  0.0509  -2.1866   0.0000   0.2005
  -5.000  -0.3916   0.01273   0.00363  -0.0162  0.1000  0.0566  -1.9579   0.0000   0.1997
  -4.500  -0.3422   0.01249   0.00337  -0.0146  0.1000  0.0637  -1.7398   0.0000   0.1983
  -4.000  -0.2929   0.01225   0.00314  -0.0131  0.1000  0.0740  -1.5364   0.0000   0.1963
  -3.500  -0.2434   0.01201   0.00293  -0.0115  0.1000  0.0899  -1.3454   0.0000   0.1933
  -3.000  -0.1927   0.01186   0.00276  -0.0102  0.1000  0.1000  -1.1634   0.0000   0.1872
  -2.500  -0.1406   0.01182   0.00265  -0.0091  0.1000  0.1000  -0.9933   0.0000   0.1745
  -2.000  -0.0885   0.01179   0.00256  -0.0081  0.1000  0.1000  -0.8331   0.0000   0.1462
  -1.500  -0.0362   0.01177   0.00250  -0.0070  0.1000  0.1000  -0.6847   0.0000   0.0355
  -1.000   0.0160   0.01178   0.00247  -0.0060  0.1000  0.1000  -0.6254   0.0000   0.6481
  -0.500   0.0683   0.01179   0.00245  -0.0050  0.1000  0.1000  -0.6949   0.0000   0.3233
   0.000   0.1206   0.01182   0.00247  -0.0040  0.1000  0.1000  -0.7655   0.0000   0.2800
   0.500   0.1727   0.01187   0.00249  -0.0030  0.1000  0.1000  -0.8387   0.0000   0.2629
   1.000   0.2248   0.01192   0.00255  -0.0020  0.1000  0.1000  -0.9161   0.0000   0.2536
   1.500   0.2768   0.01199   0.00262  -0.0011  0.1000  0.1000  -0.9946   0.0000   0.2477
   2.000   0.3286   0.01208   0.00271  -0.0001  0.1000  0.1000  -1.0745   0.0000   0.2435
   2.500   0.3802   0.01218   0.00283   0.0010  0.1000  0.1000  -1.1555   0.0000   0.2403
   3.000   0.4315   0.01229   0.00296   0.0020  0.1000  0.1000  -1.2416   0.0000   0.2378
   3.500   0.4826   0.01241   0.00312   0.0031  0.1000  0.1000  -1.3321   0.0000   0.2356
   4.000   0.5333   0.01255   0.00330   0.0042  0.1000  0.1000  -1.4261   0.0000   0.2337
   4.500   0.5837   0.01271   0.00349   0.0053  0.1000  0.1000  -1.5272   0.0000   0.2319
   5.000   0.6337   0.01288   0.00372   0.0065  0.1000  0.1000  -1.6296   0.0000   0.2302
   5.500   0.6831   0.01307   0.00396   0.0078  0.1000  0.1000  -1.7443   0.0000   0.2286
   6.000   0.7320   0.01327   0.00423   0.0091  0.1000  0.1000  -1.8632   0.0000   0.2270
   6.500   0.7802   0.01349   0.00452   0.0105  0.1000  0.1000  -1.9881   0.0000   0.2254
   7.000   0.8276   0.01373   0.00484   0.0121  0.1000  0.1000  -2.1229   0.0000   0.2237
   7.500   0.8742   0.01399   0.00518   0.0137  0.1000  0.1000  -2.2746   0.0000   0.2220
   8.000   0.9196   0.01427   0.00555   0.0155  0.1000  0.1000  -2.4315   0.0000   0.2202
   8.500   0.9636   0.01457   0.00595   0.0176  0.1000  0.1000  -2.6038   0.0000   0.2181
   9.000   1.0038   0.01487   0.00636   0.0204  0.1000  0.1000  -2.7838   0.0000   0.2154
   9.500   1.0426   0.01521   0.00680   0.0233  0.1000  0.1000  -2.9697   0.0000   0.2126
  10.000   1.0813   0.01563   0.00734   0.0261  0.1000  0.1000  -3.1735   0.0000   0.2100
  10.500   1.1192   0.01611   0.00795   0.0290  0.1000  0.1000  -3.3916   0.0000   0.2076
  11.000   1.1561   0.01665   0.00862   0.0318  0.1000  0.1000  -3.6183   0.0000   0.2051
  11.500   1.1875   0.01745   0.00947   0.0352  0.0928  0.1000  -3.8439   0.0000   0.2021
  12.000   1.2164   0.01838   0.01045   0.0388  0.0849  0.1000  -4.0718   0.0000   0.1990
  12.500   1.2428   0.01946   0.01158   0.0424  0.0779  0.1000  -4.3022   0.0000   0.1959
  13.000   1.2666   0.02071   0.01288   0.0459  0.0712  0.1000  -4.5363   0.0000   0.1928
  13.500   1.2875   0.02219   0.01444   0.0494  0.0653  0.1000  -4.7708   0.0000   0.1897
  14.000   1.3055   0.02395   0.01628   0.0527  0.0599  0.1000  -4.9982   0.0000   0.1867
  14.500   1.3203   0.02608   0.01849   0.0557  0.0549  0.1000  -5.2239   0.0000   0.1838
  15.000   1.3321   0.02864   0.02114   0.0582  0.0505  0.1000  -5.4395   0.0000   0.1812
  15.500   1.3409   0.03168   0.02430   0.0601  0.0468  0.1000  -5.6434   0.0000   0.1789
  16.000   1.3453   0.03540   0.02815   0.0614  0.0436  0.1000  -5.8293   0.0000   0.1769
  16.500   1.3438   0.04005   0.03294   0.0619  0.0408  0.1000  -5.9930   0.0000   0.1752
  17.000   1.3390   0.04550   0.03854   0.0615  0.0384  0.1000  -6.1369   0.0000   0.1740
  17.500   1.3267   0.05225   0.04546   0.0600  0.0365  0.1000  -6.2386   0.0000   0.1733
  18.000   1.3083   0.06022   0.05362   0.0576  0.0348  0.1000  -6.3021   0.0000   0.1731
  18.500   1.2793   0.07010   0.06370   0.0538  0.0335  0.1000  -6.2989   0.0000   0.1736
  19.000   1.2485   0.08077   0.07458   0.0494  0.0324  0.1000  -6.2716   0.0000   0.1747
  19.500   1.2107   0.09293   0.08695   0.0438  0.0314  0.1000  -6.1896   0.0000   0.1767
  20.000   1.1717   0.10578   0.09999   0.0376  0.0304  0.1000  -6.0807   0.0000   0.1795
  20.500   1.1415   0.11760   0.11199   0.0315  0.0293  0.1000  -6.0107   0.0000   0.1826
  21.000   1.1166   0.12878   0.12332   0.0255  0.0281  0.1000  -5.9581   0.0000   0.1861
  21.500   1.0943   0.13975   0.13442   0.0193  0.0269  0.1000  -5.9061   0.0000   0.1900
  22.000   1.0823   0.14901   0.14381   0.0138  0.0256  0.1000  -5.9136   0.0000   0.1936
  22.500   1.0702   0.15842   0.15331   0.0081  0.0245  0.1000  -5.9064   0.0000   0.1976
  23.000   1.0644   0.16668   0.16168   0.0028  0.0233  0.1000  -5.9376   0.0000   0.2012
  23.500   1.0582   0.17504   0.17012  -0.0027  0.0221  0.1000  -5.9559   0.0000   0.2051
  24.000   1.0546   0.18297   0.17815  -0.0081  0.0210  0.1000  -5.9875   0.0000   0.2089
  24.500   1.0523   0.19066   0.18592  -0.0135  0.0199  0.1000  -6.0266   0.0000   0.2127
  25.000   1.0504   0.19826   0.19359  -0.0189  0.0189  0.1000  -6.0598   0.0000   0.2165


