xflr5 v6.47

 Calculated polar for: NACA 23015 vertical convention closed TE

 1 1 Reynolds number fixed          Mach number fixed         

 xtrf =   0.100 (top)        0.100 (bottom)
 Mach =   0.000     Re =     0.900 e 6     Ncrit =   5.000

  alpha     CL        CD       CDp       Cm    Top Xtr Bot Xtr   Cpmin    Chinge    XCp    
 ------- -------- --------- --------- -------- ------- ------- -------- --------- ---------
 -10.000  -0.8477   0.01620   0.00776  -0.0375  0.1000  0.0273  -4.7516   0.0000   0.1939
  -9.500  -0.8078   0.01569   0.00716  -0.0345  0.1000  0.0286  -4.4390   0.0000   0.1959
  -9.000  -0.7664   0.01518   0.00661  -0.0317  0.1000  0.0301  -4.1278   0.0000   0.1976
  -8.500  -0.7228   0.01475   0.00609  -0.0293  0.1000  0.0316  -3.8195   0.0000   0.1989
  -8.000  -0.6787   0.01431   0.00561  -0.0269  0.1000  0.0336  -3.5295   0.0000   0.2001
  -7.500  -0.6330   0.01392   0.00517  -0.0248  0.1000  0.0358  -3.2441   0.0000   0.2009
  -7.000  -0.5863   0.01357   0.00477  -0.0228  0.1000  0.0384  -2.9641   0.0000   0.2015
  -6.500  -0.5390   0.01324   0.00440  -0.0209  0.1000  0.0415  -2.6951   0.0000   0.2018
  -6.000  -0.4909   0.01294   0.00407  -0.0192  0.1000  0.0450  -2.4408   0.0000   0.2017
  -5.500  -0.4422   0.01267   0.00377  -0.0175  0.1000  0.0494  -2.1932   0.0000   0.2013
  -5.000  -0.3930   0.01242   0.00349  -0.0159  0.1000  0.0547  -1.9631   0.0000   0.2004
  -4.500  -0.3433   0.01219   0.00325  -0.0144  0.1000  0.0615  -1.7438   0.0000   0.1990
  -4.000  -0.2934   0.01198   0.00304  -0.0130  0.1000  0.0709  -1.5390   0.0000   0.1967
  -3.500  -0.2436   0.01176   0.00284  -0.0115  0.1000  0.0851  -1.3468   0.0000   0.1935
  -3.000  -0.1933   0.01157   0.00267  -0.0101  0.1000  0.1000  -1.1652   0.0000   0.1880
  -2.500  -0.1411   0.01153   0.00257  -0.0090  0.1000  0.1000  -0.9945   0.0000   0.1753
  -2.000  -0.0887   0.01150   0.00248  -0.0080  0.1000  0.1000  -0.8338   0.0000   0.1470
  -1.500  -0.0363   0.01149   0.00243  -0.0070  0.1000  0.1000  -0.6849   0.0000   0.0362
  -1.000   0.0162   0.01149   0.00240  -0.0060  0.1000  0.1000  -0.6242   0.0000   0.6459
  -0.500   0.0686   0.01151   0.00238  -0.0051  0.1000  0.1000  -0.6936   0.0000   0.3236
   0.000   0.1210   0.01153   0.00239  -0.0041  0.1000  0.1000  -0.7641   0.0000   0.2805
   0.500   0.1734   0.01158   0.00242  -0.0031  0.1000  0.1000  -0.8392   0.0000   0.2634
   1.000   0.2256   0.01163   0.00247  -0.0022  0.1000  0.1000  -0.9168   0.0000   0.2542
   1.500   0.2778   0.01170   0.00254  -0.0012  0.1000  0.1000  -0.9955   0.0000   0.2483
   2.000   0.3298   0.01178   0.00263  -0.0002  0.1000  0.1000  -1.0756   0.0000   0.2441
   2.500   0.3815   0.01188   0.00274   0.0007  0.1000  0.1000  -1.1568   0.0000   0.2410
   3.000   0.4331   0.01198   0.00287   0.0017  0.1000  0.1000  -1.2432   0.0000   0.2384
   3.500   0.4844   0.01210   0.00302   0.0028  0.1000  0.1000  -1.3339   0.0000   0.2363
   4.000   0.5354   0.01224   0.00319   0.0038  0.1000  0.1000  -1.4283   0.0000   0.2343
   4.500   0.5860   0.01239   0.00338   0.0050  0.1000  0.1000  -1.5297   0.0000   0.2326
   5.000   0.6362   0.01255   0.00360   0.0061  0.1000  0.1000  -1.6325   0.0000   0.2309
   5.500   0.6859   0.01273   0.00383   0.0073  0.1000  0.1000  -1.7479   0.0000   0.2293
   6.000   0.7351   0.01293   0.00409   0.0086  0.1000  0.1000  -1.8673   0.0000   0.2278
   6.500   0.7836   0.01314   0.00437   0.0100  0.1000  0.1000  -1.9931   0.0000   0.2262
   7.000   0.8314   0.01337   0.00467   0.0115  0.1000  0.1000  -2.1291   0.0000   0.2246
   7.500   0.8784   0.01361   0.00500   0.0131  0.1000  0.1000  -2.2820   0.0000   0.2229
   8.000   0.9243   0.01388   0.00535   0.0148  0.1000  0.1000  -2.4399   0.0000   0.2211
   8.500   0.9690   0.01417   0.00574   0.0167  0.1000  0.1000  -2.6150   0.0000   0.2191
   9.000   1.0103   0.01446   0.00613   0.0193  0.1000  0.1000  -2.7975   0.0000   0.2166
   9.500   1.0493   0.01477   0.00654   0.0222  0.1000  0.1000  -2.9848   0.0000   0.2138
  10.000   1.0882   0.01516   0.00704   0.0251  0.1000  0.1000  -3.1913   0.0000   0.2112
  10.500   1.1267   0.01561   0.00762   0.0279  0.1000  0.1000  -3.4119   0.0000   0.2087
  11.000   1.1624   0.01620   0.00829   0.0309  0.0969  0.1000  -3.6370   0.0000   0.2060
  11.500   1.1939   0.01698   0.00912   0.0344  0.0888  0.1000  -3.8636   0.0000   0.2030
  12.000   1.2227   0.01790   0.01007   0.0380  0.0811  0.1000  -4.0928   0.0000   0.1998
  12.500   1.2498   0.01892   0.01114   0.0416  0.0742  0.1000  -4.3266   0.0000   0.1967
  13.000   1.2739   0.02013   0.01240   0.0453  0.0679  0.1000  -4.5635   0.0000   0.1936
  13.500   1.2957   0.02153   0.01386   0.0488  0.0621  0.1000  -4.8020   0.0000   0.1905
  14.000   1.3145   0.02319   0.01560   0.0521  0.0568  0.1000  -5.0346   0.0000   0.1874
  14.500   1.3304   0.02519   0.01768   0.0552  0.0521  0.1000  -5.2662   0.0000   0.1845
  15.000   1.3430   0.02759   0.02018   0.0579  0.0480  0.1000  -5.4869   0.0000   0.1818
  15.500   1.3520   0.03052   0.02321   0.0600  0.0444  0.1000  -5.6934   0.0000   0.1794
  16.500   1.3586   0.03831   0.03125   0.0623  0.0386  0.1000  -6.0659   0.0000   0.1755
  17.000   1.3544   0.04353   0.03662   0.0621  0.0364  0.1000  -6.2160   0.0000   0.1741
  17.500   1.3446   0.04982   0.04307   0.0611  0.0344  0.1000  -6.3338   0.0000   0.1732
  18.000   1.3279   0.05741   0.05084   0.0589  0.0329  0.1000  -6.4095   0.0000   0.1728
  18.500   1.3046   0.06634   0.05997   0.0558  0.0316  0.1000  -6.4414   0.0000   0.1731
  19.000   1.2705   0.07725   0.07108   0.0513  0.0305  0.1000  -6.4021   0.0000   0.1740
  19.500   1.2329   0.08921   0.08326   0.0459  0.0297  0.1000  -6.3267   0.0000   0.1757
  20.000   1.1950   0.10171   0.09596   0.0400  0.0287  0.1000  -6.2339   0.0000   0.1781
  20.500   1.1585   0.11439   0.10882   0.0336  0.0278  0.1000  -6.1305   0.0000   0.1812
  21.000   1.1280   0.12643   0.12102   0.0271  0.0268  0.1000  -6.0456   0.0000   0.1849
  21.500   1.1086   0.13683   0.13156   0.0213  0.0257  0.1000  -6.0189   0.0000   0.1884
  22.000   1.0898   0.14726   0.14211   0.0152  0.0246  0.1000  -5.9802   0.0000   0.1924
  22.500   1.0787   0.15641   0.15137   0.0096  0.0236  0.1000  -5.9853   0.0000   0.1961
  23.000   1.0704   0.16512   0.16018   0.0041  0.0224  0.1000  -5.9999   0.0000   0.1999
  23.500   1.0627   0.17374   0.16889  -0.0015  0.0213  0.1000  -6.0077   0.0000   0.2039
  24.000   1.0593   0.18158   0.17683  -0.0068  0.0202  0.1000  -6.0458   0.0000   0.2076
  24.500   1.0544   0.18978   0.18509  -0.0125  0.0192  0.1000  -6.0626   0.0000   0.2117
  25.000   1.0546   0.19690   0.19231  -0.0176  0.0182  0.1000  -6.1189   0.0000   0.2152


