xflr5 v6.47

 Calculated polar for: NACA 23015 vertical convention closed TE

 1 1 Reynolds number fixed          Mach number fixed         

 xtrf =   0.100 (top)        0.100 (bottom)
 Mach =   0.000     Re =     0.400 e 6     Ncrit =   5.000

  alpha     CL        CD       CDp       Cm    Top Xtr Bot Xtr   Cpmin    Chinge    XCp    
 ------- -------- --------- --------- -------- ------- ------- -------- --------- ---------
 -10.000  -0.7883   0.02053   0.01100  -0.0464  0.1000  0.0340  -4.4549   0.0000   0.1789
  -9.500  -0.7580   0.01972   0.01008  -0.0421  0.1000  0.0356  -4.1909   0.0000   0.1828
  -9.000  -0.7247   0.01904   0.00932  -0.0381  0.1000  0.0374  -3.9183   0.0000   0.1862
  -8.500  -0.6875   0.01833   0.00851  -0.0347  0.1000  0.0395  -3.6464   0.0000   0.1886
  -8.000  -0.6476   0.01771   0.00781  -0.0318  0.1000  0.0419  -3.3804   0.0000   0.1904
  -7.500  -0.6068   0.01711   0.00714  -0.0290  0.1000  0.0446  -3.1195   0.0000   0.1921
  -7.000  -0.5640   0.01658   0.00652  -0.0264  0.1000  0.0480  -2.8608   0.0000   0.1933
  -6.500  -0.5202   0.01609   0.00597  -0.0240  0.1000  0.0519  -2.6118   0.0000   0.1942
  -6.000  -0.4755   0.01563   0.00546  -0.0217  0.1000  0.0567  -2.3731   0.0000   0.1949
  -5.500  -0.4298   0.01521   0.00500  -0.0196  0.1000  0.0626  -2.1399   0.0000   0.1951
  -5.000  -0.3832   0.01484   0.00458  -0.0176  0.1000  0.0704  -1.9222   0.0000   0.1948
  -4.500  -0.3366   0.01446   0.00420  -0.0156  0.1000  0.0816  -1.7143   0.0000   0.1944
  -4.000  -0.2897   0.01408   0.00385  -0.0137  0.1000  0.1000  -1.5194   0.0000   0.1935
  -3.500  -0.2395   0.01395   0.00360  -0.0123  0.1000  0.1000  -1.3313   0.0000   0.1894
  -3.000  -0.1889   0.01386   0.00340  -0.0109  0.1000  0.1000  -1.1513   0.0000   0.1824
  -2.500  -0.1381   0.01380   0.00325  -0.0096  0.1000  0.1000  -0.9850   0.0000   0.1696
  -2.000  -0.0871   0.01376   0.00313  -0.0083  0.1000  0.1000  -0.8284   0.0000   0.1412
  -1.500  -0.0359   0.01374   0.00305  -0.0071  0.1000  0.1000  -0.6829   0.0000   0.0308
  -1.000   0.0152   0.01374   0.00299  -0.0059  0.1000  0.1000  -0.6290   0.0000   0.6643
  -0.500   0.0664   0.01375   0.00297  -0.0047  0.1000  0.1000  -0.6981   0.0000   0.3214
   0.000   0.1175   0.01379   0.00298  -0.0036  0.1000  0.1000  -0.7684   0.0000   0.2770
   0.500   0.1686   0.01385   0.00301  -0.0024  0.1000  0.1000  -0.8399   0.0000   0.2595
   1.000   0.2195   0.01392   0.00308  -0.0012  0.1000  0.1000  -0.9124   0.0000   0.2500
   1.500   0.2703   0.01401   0.00317  -0.0000  0.1000  0.1000  -0.9868   0.0000   0.2439
   2.000   0.3209   0.01411   0.00329   0.0012  0.1000  0.1000  -1.0656   0.0000   0.2397
   2.500   0.3713   0.01424   0.00343   0.0024  0.1000  0.1000  -1.1455   0.0000   0.2364
   3.000   0.4214   0.01438   0.00360   0.0036  0.1000  0.1000  -1.2305   0.0000   0.2337
   3.500   0.4711   0.01454   0.00380   0.0049  0.1000  0.1000  -1.3194   0.0000   0.2315
   4.000   0.5204   0.01472   0.00403   0.0062  0.1000  0.1000  -1.4108   0.0000   0.2294
   4.500   0.5693   0.01492   0.00429   0.0076  0.1000  0.1000  -1.5099   0.0000   0.2276
   5.000   0.6176   0.01515   0.00458   0.0090  0.1000  0.1000  -1.6102   0.0000   0.2258
   5.500   0.6653   0.01539   0.00490   0.0106  0.1000  0.1000  -1.7201   0.0000   0.2240
   6.000   0.7122   0.01565   0.00525   0.0122  0.1000  0.1000  -1.8360   0.0000   0.2222
   6.500   0.7584   0.01594   0.00563   0.0139  0.1000  0.1000  -1.9564   0.0000   0.2204
   7.000   0.8034   0.01625   0.00605   0.0158  0.1000  0.1000  -2.0845   0.0000   0.2185
   7.500   0.8473   0.01659   0.00650   0.0179  0.1000  0.1000  -2.2265   0.0000   0.2165
   8.000   0.8891   0.01696   0.00698   0.0202  0.1000  0.1000  -2.3758   0.0000   0.2142
   8.500   0.9276   0.01733   0.00749   0.0232  0.1000  0.1000  -2.5285   0.0000   0.2112
   9.000   0.9653   0.01777   0.00806   0.0262  0.1000  0.1000  -2.7007   0.0000   0.2084
   9.500   1.0027   0.01831   0.00874   0.0291  0.1000  0.1000  -2.8783   0.0000   0.2058
  10.000   1.0391   0.01891   0.00949   0.0320  0.1000  0.1000  -3.0659   0.0000   0.2033
  10.500   1.0742   0.01959   0.01033   0.0349  0.1000  0.1000  -3.2696   0.0000   0.2008
  11.000   1.1076   0.02035   0.01126   0.0378  0.1000  0.1000  -3.4800   0.0000   0.1983
  11.500   1.1391   0.02123   0.01232   0.0408  0.1000  0.1000  -3.6952   0.0000   0.1958
  12.000   1.1684   0.02225   0.01353   0.0438  0.1000  0.1000  -3.9130   0.0000   0.1932
  12.500   1.1952   0.02347   0.01494   0.0469  0.0999  0.1000  -4.1346   0.0000   0.1906
  13.000   1.2159   0.02511   0.01669   0.0500  0.0928  0.1000  -4.3474   0.0000   0.1877
  13.500   1.2333   0.02709   0.01877   0.0529  0.0859  0.1000  -4.5573   0.0000   0.1850
  14.500   1.2581   0.03236   0.02429   0.0574  0.0737  0.1000  -4.9541   0.0000   0.1801
  15.000   1.2649   0.03585   0.02792   0.0588  0.0686  0.1000  -5.1375   0.0000   0.1780
  15.500   1.2667   0.04014   0.03236   0.0594  0.0641  0.1000  -5.2990   0.0000   0.1764
  16.000   1.2618   0.04551   0.03790   0.0592  0.0602  0.1000  -5.4285   0.0000   0.1751
  16.500   1.2546   0.05162   0.04419   0.0580  0.0565  0.1000  -5.5413   0.0000   0.1744
  17.000   1.2398   0.05910   0.05186   0.0559  0.0536  0.1000  -5.6136   0.0000   0.1743
  17.500   1.2187   0.06787   0.06083   0.0527  0.0510  0.1000  -5.6496   0.0000   0.1747
  18.000   1.1940   0.07764   0.07080   0.0487  0.0487  0.1000  -5.6548   0.0000   0.1758
  18.500   1.1657   0.08840   0.08176   0.0439  0.0466  0.1000  -5.6275   0.0000   0.1776
  19.000   1.1374   0.09956   0.09310   0.0386  0.0446  0.1000  -5.5862   0.0000   0.1800
  19.500   1.1126   0.11051   0.10422   0.0332  0.0425  0.1000  -5.5505   0.0000   0.1829
  20.000   1.0903   0.12129   0.11515   0.0275  0.0406  0.1000  -5.5159   0.0000   0.1862
  20.500   1.0738   0.13129   0.12530   0.0221  0.0385  0.1000  -5.5038   0.0000   0.1896
  21.000   1.0604   0.14088   0.13499   0.0167  0.0366  0.1000  -5.5005   0.0000   0.1933
  21.500   1.0508   0.14990   0.14415   0.0113  0.0346  0.1000  -5.5162   0.0000   0.1970
  22.000   1.0434   0.15859   0.15293   0.0060  0.0328  0.1000  -5.5374   0.0000   0.2008
  22.500   1.0376   0.16702   0.16147   0.0006  0.0310  0.1000  -5.5599   0.0000   0.2047
  23.000   1.0342   0.17502   0.16957  -0.0046  0.0294  0.1000  -5.5911   0.0000   0.2085
  23.500   1.0310   0.18304   0.17769  -0.0101  0.0278  0.1000  -5.6142   0.0000   0.2125
  24.000   1.0293   0.19081   0.18554  -0.0154  0.0263  0.1000  -5.6401   0.0000   0.2165
  24.500   1.0270   0.19868   0.19351  -0.0210  0.0248  0.1000  -5.6574   0.0000   0.2207
  25.000   1.0260   0.20627   0.20119  -0.0265  0.0236  0.1000  -5.6749   0.0000   0.2247


