xflr5 v6.47

 Calculated polar for: NACA 23015 vertical convention closed TE

 1 1 Reynolds number fixed          Mach number fixed         

 xtrf =   0.100 (top)        0.100 (bottom)
 Mach =   0.000     Re =     1.000 e 6     Ncrit =   5.000

  alpha     CL        CD       CDp       Cm    Top Xtr Bot Xtr   Cpmin    Chinge    XCp    
 ------- -------- --------- --------- -------- ------- ------- -------- --------- ---------
 -10.000  -0.8535   0.01577   0.00745  -0.0366  0.1000  0.0266  -4.7800   0.0000   0.1953
  -9.500  -0.8126   0.01528   0.00689  -0.0338  0.1000  0.0279  -4.4620   0.0000   0.1971
  -9.000  -0.7706   0.01480   0.00635  -0.0311  0.1000  0.0293  -4.1482   0.0000   0.1987
  -8.500  -0.7267   0.01437   0.00586  -0.0287  0.1000  0.0309  -3.8369   0.0000   0.2000
  -8.000  -0.6819   0.01396   0.00540  -0.0264  0.1000  0.0327  -3.5442   0.0000   0.2011
  -7.500  -0.6355   0.01361   0.00499  -0.0244  0.1000  0.0349  -3.2556   0.0000   0.2018
  -7.000  -0.5888   0.01325   0.00460  -0.0224  0.1000  0.0374  -2.9747   0.0000   0.2024
  -6.500  -0.5410   0.01294   0.00425  -0.0206  0.1000  0.0404  -2.7035   0.0000   0.2026
  -6.000  -0.4925   0.01266   0.00393  -0.0189  0.1000  0.0437  -2.4475   0.0000   0.2024
  -5.500  -0.4434   0.01240   0.00364  -0.0173  0.1000  0.0480  -2.1985   0.0000   0.2019
  -5.000  -0.3940   0.01217   0.00338  -0.0158  0.1000  0.0530  -1.9672   0.0000   0.2010
  -4.500  -0.3442   0.01194   0.00315  -0.0143  0.1000  0.0596  -1.7470   0.0000   0.1996
  -4.000  -0.2941   0.01173   0.00295  -0.0128  0.1000  0.0685  -1.5415   0.0000   0.1973
  -3.500  -0.2439   0.01153   0.00276  -0.0114  0.1000  0.0813  -1.3484   0.0000   0.1939
  -3.000  -0.1938   0.01132   0.00259  -0.0100  0.1000  0.1000  -1.1668   0.0000   0.1887
  -2.500  -0.1414   0.01128   0.00249  -0.0090  0.1000  0.1000  -0.9955   0.0000   0.1760
  -2.000  -0.0889   0.01125   0.00242  -0.0080  0.1000  0.1000  -0.8343   0.0000   0.1477
  -1.500  -0.0363   0.01124   0.00236  -0.0070  0.1000  0.1000  -0.6851   0.0000   0.0369
  -1.000   0.0163   0.01124   0.00233  -0.0060  0.1000  0.1000  -0.6229   0.0000   0.6441
  -0.500   0.0689   0.01126   0.00232  -0.0051  0.1000  0.1000  -0.6924   0.0000   0.3238
   0.000   0.1214   0.01129   0.00233  -0.0042  0.1000  0.1000  -0.7634   0.0000   0.2809
   0.500   0.1740   0.01133   0.00236  -0.0032  0.1000  0.1000  -0.8398   0.0000   0.2639
   1.000   0.2264   0.01138   0.00241  -0.0023  0.1000  0.1000  -0.9174   0.0000   0.2547
   1.500   0.2786   0.01145   0.00248  -0.0014  0.1000  0.1000  -0.9963   0.0000   0.2488
   2.000   0.3308   0.01153   0.00256  -0.0004  0.1000  0.1000  -1.0764   0.0000   0.2447
   2.500   0.3828   0.01162   0.00267   0.0005  0.1000  0.1000  -1.1578   0.0000   0.2415
   3.000   0.4345   0.01172   0.00279   0.0015  0.1000  0.1000  -1.2445   0.0000   0.2390
   3.500   0.4859   0.01184   0.00294   0.0025  0.1000  0.1000  -1.3354   0.0000   0.2368
   4.000   0.5371   0.01197   0.00310   0.0036  0.1000  0.1000  -1.4302   0.0000   0.2349
   4.500   0.5879   0.01211   0.00329   0.0046  0.1000  0.1000  -1.5319   0.0000   0.2332
   5.000   0.6384   0.01227   0.00349   0.0057  0.1000  0.1000  -1.6350   0.0000   0.2316
   5.500   0.6883   0.01244   0.00372   0.0069  0.1000  0.1000  -1.7511   0.0000   0.2300
   6.000   0.7378   0.01263   0.00396   0.0082  0.1000  0.1000  -1.8709   0.0000   0.2284
   6.500   0.7866   0.01283   0.00423   0.0095  0.1000  0.1000  -1.9974   0.0000   0.2269
   7.000   0.8347   0.01305   0.00453   0.0109  0.1000  0.1000  -2.1345   0.0000   0.2253
   7.500   0.8820   0.01329   0.00484   0.0125  0.1000  0.1000  -2.2884   0.0000   0.2236
   8.000   0.9283   0.01355   0.00518   0.0141  0.1000  0.1000  -2.4472   0.0000   0.2218
   8.500   0.9735   0.01382   0.00555   0.0160  0.1000  0.1000  -2.6244   0.0000   0.2200
   9.000   1.0161   0.01411   0.00593   0.0183  0.1000  0.1000  -2.8097   0.0000   0.2177
   9.500   1.0554   0.01440   0.00632   0.0213  0.1000  0.1000  -2.9985   0.0000   0.2149
  10.000   1.0945   0.01476   0.00679   0.0241  0.1000  0.1000  -3.2070   0.0000   0.2122
  10.500   1.1332   0.01519   0.00733   0.0269  0.1000  0.1000  -3.4296   0.0000   0.2097
  11.000   1.1673   0.01584   0.00803   0.0302  0.0938  0.1000  -3.6517   0.0000   0.2068
  11.500   1.1989   0.01661   0.00884   0.0337  0.0856  0.1000  -3.8791   0.0000   0.2037
  12.000   1.2284   0.01749   0.00975   0.0373  0.0783  0.1000  -4.1111   0.0000   0.2006
  12.500   1.2556   0.01848   0.01079   0.0410  0.0714  0.1000  -4.3467   0.0000   0.1974
  13.000   1.2802   0.01964   0.01200   0.0447  0.0652  0.1000  -4.5866   0.0000   0.1942
  13.500   1.3023   0.02099   0.01341   0.0483  0.0596  0.1000  -4.8273   0.0000   0.1911
  14.000   1.3215   0.02259   0.01508   0.0517  0.0544  0.1000  -5.0632   0.0000   0.1880
  14.500   1.3376   0.02452   0.01708   0.0549  0.0497  0.1000  -5.2969   0.0000   0.1851
  15.000   1.3507   0.02684   0.01948   0.0577  0.0457  0.1000  -5.5206   0.0000   0.1823
  15.500   1.3614   0.02956   0.02230   0.0599  0.0422  0.1000  -5.7357   0.0000   0.1798
  16.000   1.3683   0.03287   0.02573   0.0616  0.0393  0.1000  -5.9393   0.0000   0.1776
  16.500   1.3699   0.03698   0.02997   0.0626  0.0368  0.1000  -6.1217   0.0000   0.1757
  17.000   1.3680   0.04185   0.03497   0.0627  0.0345  0.1000  -6.2850   0.0000   0.1743
  17.500   1.3603   0.04775   0.04104   0.0619  0.0328  0.1000  -6.4162   0.0000   0.1732
  18.000   1.3459   0.05491   0.04837   0.0601  0.0312  0.1000  -6.5070   0.0000   0.1727
  18.500   1.3222   0.06370   0.05735   0.0571  0.0300  0.1000  -6.5415   0.0000   0.1727
  19.000   1.2937   0.07367   0.06752   0.0532  0.0289  0.1000  -6.5375   0.0000   0.1733
  19.500   1.2554   0.08553   0.07960   0.0480  0.0280  0.1000  -6.4667   0.0000   0.1748
  20.000   1.2124   0.09865   0.09292   0.0418  0.0273  0.1000  -6.3487   0.0000   0.1771
  20.500   1.1759   0.11119   0.10565   0.0355  0.0266  0.1000  -6.2508   0.0000   0.1800
  21.000   1.1452   0.12316   0.11779   0.0292  0.0257  0.1000  -6.1704   0.0000   0.1834
  21.500   1.1189   0.13466   0.12943   0.0229  0.0247  0.1000  -6.1007   0.0000   0.1872
  22.000   1.1000   0.14505   0.13995   0.0168  0.0238  0.1000  -6.0655   0.0000   0.1910
  22.500   1.0872   0.15445   0.14948   0.0111  0.0227  0.1000  -6.0619   0.0000   0.1948
  23.500   1.0693   0.17208   0.16729  -0.0001  0.0205  0.1000  -6.0763   0.0000   0.2026
  24.000   1.0627   0.18052   0.17582  -0.0058  0.0195  0.1000  -6.0890   0.0000   0.2066
  24.500   1.0595   0.18832   0.18371  -0.0112  0.0186  0.1000  -6.1251   0.0000   0.2103
  25.000   1.0578   0.19582   0.19130  -0.0165  0.0176  0.1000  -6.1657   0.0000   0.2141


