xflr5 v6.48

Plane name :        Belloc
Polar name :        VLM2-b15-Inviscid
Freestream speed :  40.000 m/s


   alpha      Beta       CL          CDi        CDv        CD         CY         Cl         Cm         Cn        Cni       QInf        XCP
   -6.000    15.000  -0.292609   0.021022   0.000000   0.021022   0.000000  -0.116117  -0.242738  -0.089656  -0.089656   40.0000     0.0145
   -5.500    15.000  -0.262197   0.019923   0.000000   0.019923   0.000000  -0.114822  -0.214118  -0.079149  -0.079149   40.0000     0.0035
   -5.000    15.000  -0.231794   0.018945   0.000000   0.018945   0.000000  -0.113925  -0.188289  -0.068617  -0.068617   40.0000    -0.0102
   -4.500    15.000  -0.201408   0.018087   0.000000   0.018087   0.000000  -0.113422  -0.165259  -0.058053  -0.058053   40.0000    -0.0280
   -4.000    15.000  -0.171049   0.017348   0.000000   0.017348   0.000000  -0.113311  -0.145030  -0.047448  -0.047448   40.0000    -0.0518
   -3.500    15.000  -0.140726   0.016728   0.000000   0.016728   0.000000  -0.113588  -0.127607  -0.036796  -0.036796   40.0000    -0.0857
   -3.000    15.000  -0.110446   0.016227   0.000000   0.016227   0.000000  -0.114250  -0.112988  -0.026087  -0.026087   40.0000    -0.1380
   -2.500    15.000  -0.080220   0.015842   0.000000   0.015842   0.000000  -0.115291  -0.101173  -0.015315  -0.015315   40.0000    -0.2291
   -2.000    15.000  -0.050056   0.015575   0.000000   0.015575   0.000000  -0.116707  -0.092158  -0.004473  -0.004473   40.0000    -0.4291
   -1.500    15.000  -0.019962   0.015423   0.000000   0.015423   0.000000  -0.118493  -0.085938   0.006448   0.006448   40.0000    -1.2300
   -1.000    15.000   0.010053   0.015387   0.000000   0.015387   0.000000  -0.120641  -0.082505   0.017453   0.017453   40.0000     2.7444
   -0.500    15.000   0.039981   0.015464   0.000000   0.015464   0.000000  -0.123147  -0.081849   0.028550   0.028550   40.0000     0.7652
    0.000    15.000   0.069813   0.015655   0.000000   0.015655   0.000000  -0.126004  -0.083959   0.039746   0.039746   40.0000     0.4807
    0.500    15.000   0.099540   0.015958   0.000000   0.015958   0.000000  -0.129203  -0.088823   0.051045   0.051045   40.0000     0.3666
    1.000    15.000   0.129156   0.016371   0.000000   0.016371   0.000000  -0.132739  -0.096424   0.062456   0.062456   40.0000     0.3049
    1.500    15.000   0.158650   0.016895   0.000000   0.016895   0.000000  -0.136603  -0.106745   0.073983   0.073983   40.0000     0.2663
    2.000    15.000   0.188017   0.017527   0.000000   0.017527   0.000000  -0.140786  -0.119769   0.085631   0.085631   40.0000     0.2397
    2.500    15.000   0.217246   0.018266   0.000000   0.018266   0.000000  -0.145281  -0.135474   0.097408   0.097408   40.0000     0.2202
    3.000    15.000   0.246332   0.019111   0.000000   0.019111   0.000000  -0.150077  -0.153838   0.109316   0.109316   40.0000     0.2053
    3.500    15.000   0.275265   0.020060   0.000000   0.020060   0.000000  -0.155166  -0.174836   0.121361   0.121361   40.0000     0.1936
    4.000    15.000   0.304038   0.021112   0.000000   0.021112   0.000000  -0.160539  -0.198443   0.133548   0.133548   40.0000     0.1840
    4.500    15.000   0.332644   0.022266   0.000000   0.022266   0.000000  -0.166185  -0.224631   0.145880   0.145880   40.0000     0.1761
    5.000    15.000   0.361074   0.023520   0.000000   0.023520   0.000000  -0.172093  -0.253370   0.158361   0.158361   40.0000     0.1694
    5.500    15.000   0.389322   0.024872   0.000000   0.024872   0.000000  -0.178254  -0.284629   0.170995   0.170995   40.0000     0.1636
    6.000    15.000   0.417381   0.026320   0.000000   0.026320   0.000000  -0.184657  -0.318376   0.183784   0.183784   40.0000     0.1586
    6.500    15.000   0.445242   0.027864   0.000000   0.027864   0.000000  -0.191290  -0.354576   0.196731   0.196731   40.0000     0.1542
    7.000    15.000   0.472899   0.029501   0.000000   0.029501   0.000000  -0.198143  -0.393194   0.209839   0.209839   40.0000     0.1503
    7.500    15.000   0.500345   0.031230   0.000000   0.031230   0.000000  -0.205204  -0.434191   0.223110   0.223110   40.0000     0.1468
    8.000    15.000   0.527573   0.033048   0.000000   0.033048   0.000000  -0.212460  -0.477530   0.236545   0.236545   40.0000     0.1436
    8.500    15.000   0.554575   0.034954   0.000000   0.034954   0.000000  -0.219901  -0.523168   0.250146   0.250146   40.0000     0.1408
    9.000    15.000   0.581346   0.036946   0.000000   0.036946   0.000000  -0.227514  -0.571066   0.263912   0.263912   40.0000     0.1381
    9.500    15.000   0.607879   0.039022   0.000000   0.039022   0.000000  -0.235287  -0.621179   0.277846   0.277846   40.0000     0.1357
   10.000    15.000   0.634167   0.041180   0.000000   0.041180   0.000000  -0.243208  -0.673462   0.291946   0.291946   40.0000     0.1335
   10.500    15.000   0.660203   0.043419   0.000000   0.043419   0.000000  -0.251264  -0.727870   0.306213   0.306213   40.0000     0.1314
   11.000    15.000   0.685982   0.045735   0.000000   0.045735   0.000000  -0.259443  -0.784355   0.320646   0.320646   40.0000     0.1295
   11.500    15.000   0.711497   0.048128   0.000000   0.048128   0.000000  -0.267732  -0.842869   0.335244   0.335244   40.0000     0.1277
   12.000    15.000   0.736743   0.050595   0.000000   0.050595   0.000000  -0.276118  -0.903362   0.350005   0.350005   40.0000     0.1260
   12.500    15.000   0.761712   0.053134   0.000000   0.053134   0.000000  -0.284588  -0.965782   0.364928   0.364928   40.0000     0.1244
   13.000    15.000   0.786400   0.055743   0.000000   0.055743   0.000000  -0.293130  -1.030078   0.380009   0.380009   40.0000     0.1229
   13.500    15.000   0.810800   0.058420   0.000000   0.058420   0.000000  -0.301732  -1.096196   0.395247   0.395247   40.0000     0.1215
   14.000    15.000   0.834907   0.061162   0.000000   0.061162   0.000000  -0.310379  -1.164083   0.410639   0.410639   40.0000     0.1201
   14.500    15.000   0.858716   0.063968   0.000000   0.063968   0.000000  -0.319059  -1.233681   0.426181   0.426181   40.0000     0.1189
   15.000    15.000   0.882220   0.066835   0.000000   0.066835   0.000000  -0.327760  -1.304936   0.441868   0.441868   40.0000     0.1176
   15.500    15.000   0.905415   0.069761   0.000000   0.069761   0.000000  -0.336468  -1.377789   0.457698   0.457698   40.0000     0.1164
   16.000    15.000   0.928296   0.072744   0.000000   0.072744   0.000000  -0.345172  -1.452183   0.473665   0.473665   40.0000     0.1153
   16.500    15.000   0.950856   0.075782   0.000000   0.075782   0.000000  -0.353858  -1.528058   0.489764   0.489764   40.0000     0.1142
   17.000    15.000   0.973092   0.078872   0.000000   0.078872   0.000000  -0.362514  -1.605354   0.505991   0.505991   40.0000     0.1132
   17.500    15.000   0.994999   0.082013   0.000000   0.082013   0.000000  -0.371127  -1.684011   0.522338   0.522338   40.0000     0.1122
   18.000    15.000   1.016571   0.085201   0.000000   0.085201   0.000000  -0.379686  -1.763966   0.538800   0.538800   40.0000     0.1112
   18.500    15.000   1.037804   0.088434   0.000000   0.088434   0.000000  -0.388178  -1.845158   0.555371   0.555371   40.0000     0.1102
   19.000    15.000   1.058694   0.091711   0.000000   0.091711   0.000000  -0.396592  -1.927524   0.572044   0.572044   40.0000     0.1093
   19.500    15.000   1.079236   0.095029   0.000000   0.095029   0.000000  -0.404915  -2.011000   0.588812   0.588812   40.0000     0.1084
   20.000    15.000   1.099426   0.098386   0.000000   0.098386   0.000000  -0.413135  -2.095521   0.605666   0.605666   40.0000     0.1076
   20.500    15.000   1.119259   0.101779   0.000000   0.101779   0.000000  -0.421243  -2.181024   0.622600   0.622600   40.0000     0.1067
   21.000    15.000   1.138732   0.105205   0.000000   0.105205   0.000000  -0.429226  -2.267444   0.639604   0.639604   40.0000     0.1059
   21.500    15.000   1.157841   0.108664   0.000000   0.108664   0.000000  -0.437074  -2.354713   0.656672   0.656672   40.0000     0.1051
   22.000    15.000   1.176581   0.112151   0.000000   0.112151   0.000000  -0.444775  -2.442767   0.673793   0.673793   40.0000     0.1044


