xflr5 v6.48

Plane name :        Belloc
Polar name :        VLM2-b00-Inviscid
Freestream speed :  40.000 m/s


   alpha      Beta       CL          CDi        CDv        CD         CY         Cl         Cm         Cn        Cni       QInf        XCP
   -6.000     0.000  -0.290968   0.005790   0.000000   0.005790   0.000000   0.000000  -0.163060   0.000000   0.000000   40.0000     0.0971
   -5.500     0.000  -0.258889   0.004672   0.000000   0.004672   0.000000   0.000000  -0.134089   0.000000   0.000000   40.0000     0.0950
   -5.000     0.000  -0.226822   0.003683   0.000000   0.003683   0.000000   0.000000  -0.108121   0.000000   0.000000   40.0000     0.0924
   -4.500     0.000  -0.194779   0.002823   0.000000   0.002823   0.000000   0.000000  -0.085162   0.000000   0.000000   40.0000     0.0892
   -4.000     0.000  -0.162767   0.002090   0.000000   0.002090   0.000000   0.000000  -0.065216   0.000000   0.000000   40.0000     0.0850
   -3.500     0.000  -0.130796   0.001483   0.000000   0.001483   0.000000   0.000000  -0.048284   0.000000   0.000000   40.0000     0.0790
   -3.000     0.000  -0.098876   0.001004   0.000000   0.001004   0.000000   0.000000  -0.034366   0.000000   0.000000   40.0000     0.0696
   -2.500     0.000  -0.067016   0.000649   0.000000   0.000649   0.000000   0.000000  -0.023459  -0.000000  -0.000000   40.0000     0.0517
   -2.000     0.000  -0.035224   0.000420   0.000000   0.000420   0.000000   0.000000  -0.015558  -0.000000  -0.000000   40.0000     0.0027
   -1.500     0.000  -0.003511   0.000314   0.000000   0.000314   0.000000   0.000000  -0.010657  -0.000000  -0.000000   40.0000    -0.9198
   -1.000     0.000   0.028116   0.000331   0.000000   0.000331   0.000000   0.000000  -0.008747  -0.000000  -0.000000   40.0000     0.2315
   -0.500     0.000   0.059647   0.000469   0.000000   0.000469   0.000000  -0.000000  -0.009816   0.000000   0.000000   40.0000     0.1634
    0.000     0.000   0.091074   0.000729   0.000000   0.000729   0.000000  -0.000000  -0.013851   0.000000   0.000000   40.0000     0.1420
    0.500     0.000   0.122387   0.001107   0.000000   0.001107   0.000000  -0.000000  -0.020837   0.000000   0.000000   40.0000     0.1313
    1.000     0.000   0.153578   0.001605   0.000000   0.001605   0.000000  -0.000000  -0.030757   0.000000   0.000000   40.0000     0.1248
    1.500     0.000   0.184639   0.002219   0.000000   0.002219   0.000000  -0.000000  -0.043592   0.000000   0.000000   40.0000     0.1203
    2.000     0.000   0.215561   0.002949   0.000000   0.002949   0.000000  -0.000000  -0.059320   0.000000   0.000000   40.0000     0.1170
    2.500     0.000   0.246336   0.003793   0.000000   0.003793   0.000000  -0.000000  -0.077920   0.000000   0.000000   40.0000     0.1143
    3.000     0.000   0.276955   0.004750   0.000000   0.004750   0.000000  -0.000000  -0.099364   0.000000   0.000000   40.0000     0.1121
    3.500     0.000   0.307411   0.005818   0.000000   0.005818   0.000000  -0.000000  -0.123628   0.000000   0.000000   40.0000     0.1103
    4.000     0.000   0.337694   0.006996   0.000000   0.006996   0.000000  -0.000000  -0.150681   0.000000   0.000000   40.0000     0.1087
    4.500     0.000   0.367799   0.008282   0.000000   0.008282   0.000000  -0.000000  -0.180494   0.000000   0.000000   40.0000     0.1073
    5.000     0.000   0.397715   0.009674   0.000000   0.009674   0.000000  -0.000000  -0.213034   0.000000   0.000000   40.0000     0.1060
    5.500     0.000   0.427436   0.011172   0.000000   0.011172   0.000000  -0.000000  -0.248267   0.000000   0.000000   40.0000     0.1048
    6.000     0.000   0.456954   0.012772   0.000000   0.012772   0.000000  -0.000000  -0.286157   0.000000   0.000000   40.0000     0.1037
    6.500     0.000   0.486262   0.014473   0.000000   0.014473   0.000000  -0.000000  -0.326667   0.000000   0.000000   40.0000     0.1027
    7.000     0.000   0.515351   0.016274   0.000000   0.016274   0.000000  -0.000000  -0.369756   0.000000   0.000000   40.0000     0.1017
    7.500     0.000   0.544215   0.018173   0.000000   0.018173   0.000000  -0.000000  -0.415384   0.000000   0.000000   40.0000     0.1008
    8.000     0.000   0.572846   0.020167   0.000000   0.020167   0.000000  -0.000000  -0.463510   0.000000   0.000000   40.0000     0.0999
    8.500     0.000   0.601238   0.022255   0.000000   0.022255   0.000000  -0.000000  -0.514087   0.000000   0.000000   40.0000     0.0990
    9.000     0.000   0.629383   0.024434   0.000000   0.024434   0.000000  -0.000000  -0.567072   0.000000   0.000000   40.0000     0.0982
    9.500     0.000   0.657274   0.026703   0.000000   0.026703   0.000000  -0.000000  -0.622416   0.000000   0.000000   40.0000     0.0974
   10.000     0.000   0.684904   0.029060   0.000000   0.029060   0.000000  -0.000000  -0.680071   0.000000   0.000000   40.0000     0.0966
   10.500     0.000   0.712267   0.031502   0.000000   0.031502   0.000000  -0.000000  -0.739988   0.000000   0.000000   40.0000     0.0959
   11.000     0.000   0.739357   0.034028   0.000000   0.034028   0.000000  -0.000000  -0.802114   0.000000   0.000000   40.0000     0.0952
   11.500     0.000   0.766166   0.036634   0.000000   0.036634   0.000000  -0.000000  -0.866396   0.000000   0.000000   40.0000     0.0944
   12.000     0.000   0.792689   0.039321   0.000000   0.039321   0.000000  -0.000000  -0.932782   0.000000   0.000000   40.0000     0.0937
   12.500     0.000   0.818918   0.042084   0.000000   0.042084   0.000000  -0.000000  -1.001215   0.000000   0.000000   40.0000     0.0930
   13.000     0.000   0.844849   0.044921   0.000000   0.044921   0.000000  -0.000000  -1.071639   0.000000   0.000000   40.0000     0.0923
   13.500     0.000   0.870475   0.047831   0.000000   0.047831   0.000000  -0.000000  -1.143997   0.000000   0.000000   40.0000     0.0917
   14.000     0.000   0.895790   0.050812   0.000000   0.050812   0.000000  -0.000000  -1.218229   0.000000   0.000000   40.0000     0.0910
   14.500     0.000   0.920788   0.053860   0.000000   0.053860   0.000000  -0.000000  -1.294275   0.000000   0.000000   40.0000     0.0903
   15.000     0.000   0.945464   0.056974   0.000000   0.056974   0.000000  -0.000000  -1.372074   0.000000   0.000000   40.0000     0.0897
   15.500     0.000   0.969812   0.060152   0.000000   0.060152   0.000000  -0.000000  -1.451565   0.000000   0.000000   40.0000     0.0890
   16.000     0.000   0.993827   0.063390   0.000000   0.063390   0.000000  -0.000000  -1.532685   0.000000   0.000000   40.0000     0.0884
   16.500     0.000   1.017504   0.066687   0.000000   0.066687   0.000000  -0.000000  -1.615369   0.000000   0.000000   40.0000     0.0877
   17.000     0.000   1.040837   0.070041   0.000000   0.070041   0.000000  -0.000000  -1.699553   0.000000   0.000000   40.0000     0.0871
   17.500     0.000   1.063821   0.073448   0.000000   0.073448   0.000000  -0.000000  -1.785171   0.000000   0.000000   40.0000     0.0865
   18.000     0.000   1.086451   0.076907   0.000000   0.076907   0.000000  -0.000000  -1.872157   0.000000   0.000000   40.0000     0.0858
   18.500     0.000   1.108724   0.080415   0.000000   0.080415   0.000000  -0.000000  -1.960443   0.000000   0.000000   40.0000     0.0852
   19.000     0.000   1.130632   0.083969   0.000000   0.083969   0.000000  -0.000000  -2.049963   0.000000   0.000000   40.0000     0.0846
   19.500     0.000   1.152174   0.087568   0.000000   0.087568   0.000000  -0.000000  -2.140647   0.000000   0.000000   40.0000     0.0840
   20.000     0.000   1.173343   0.091209   0.000000   0.091209   0.000000  -0.000000  -2.232426   0.000000   0.000000   40.0000     0.0833
   20.500     0.000   1.194135   0.094890   0.000000   0.094890   0.000000  -0.000000  -2.325231   0.000000   0.000000   40.0000     0.0827
   21.000     0.000   1.214547   0.098607   0.000000   0.098607   0.000000   0.000000  -2.418992   0.000000   0.000000   40.0000     0.0821
   21.500     0.000   1.234574   0.102359   0.000000   0.102359   0.000000   0.000000  -2.513638   0.000000   0.000000   40.0000     0.0815
   22.000     0.000   1.254213   0.106143   0.000000   0.106143   0.000000   0.000000  -2.609097   0.000000   0.000000   40.0000     0.0809


